@<TRIPOS>MOLECULE
https://chemcompute.org/app/GAMESS/download_job/1340646/?t=0.24554867385187573
 6 5 0 0 0
SMALL
GASTEIGER
****
Jmol version 14.31.39  2021-05-15 06:46 EXTRACT: ({42:47})
@<TRIPOS>ATOM
      1 N          -1.2398   -0.4219   -0.4295 N.3     1  UNL1       -0.1324
      2 C          -0.1643   -0.0559   -0.0569 C.3     1  UNL1        0.0975
      3 C           1.1813    0.4020    0.4092 C.3     1  UNL1       -0.0400
      4 H           1.6807   -0.4035    0.9762 H       1  UNL1        0.0250
      5 H           1.0757    1.2858    1.0629 H       1  UNL1        0.0250
      6 H           1.8111    0.6720   -0.4568 H       1  UNL1        0.0250
@<TRIPOS>BOND
     1     1     2    1
     2     2     3    1
     3     3     5    1
     4     3     4    1
     5     6     3    1
