@<TRIPOS>MOLECULE
*****
 10 9 0 0 0
SMALL
GASTEIGER

@<TRIPOS>ATOM
      1 C          -0.3278   -1.3878    0.2277 C.3     1  UNL1       -0.0063
      2 C           0.1379   -0.0472   -0.1752 C.2     1  UNL1        0.1273
      3 C           1.5436    0.2108   -0.5441 C.3     1  UNL1       -0.0063
      4 O          -0.6828    0.8998   -0.2051 O.2     1  UNL1       -0.2980
      5 H          -0.2106   -1.5044    1.3063 H       1  UNL1        0.0306
      6 H           0.2453   -2.1672   -0.2791 H       1  UNL1        0.0306
      7 H          -1.3818   -1.5199   -0.0252 H       1  UNL1        0.0306
      8 H           1.8161    1.2442   -0.3196 H       1  UNL1        0.0306
      9 H           2.2176   -0.4480    0.0081 H       1  UNL1        0.0306
     10 H           1.6759    0.0395   -1.6138 H       1  UNL1        0.0306
@<TRIPOS>BOND
     1     1     2    1
     2     2     3    1
     3     2     4    2
     4     1     5    1
     5     1     6    1
     6     1     7    1
     7     3     8    1
     8     3     9    1
     9     3    10    1
