@<TRIPOS>MOLECULE
*****
 122 148 0 0 0
SMALL
GASTEIGER

@<TRIPOS>ATOM
      1 C          -4.2534    6.1775    2.2105 C.3     1  UNL1       -0.0288
      2 C          -3.9984    4.7039    2.0474 C.3     1  UNL1       -0.0179
      3 C          -3.1147    3.4774    2.1125 C.3     1  UNL1       -0.0050
      4 C          -4.2278    2.8590    3.3324 C.3     1  UNL1       -0.0179
      5 C          -4.5913    4.0423    4.4500 C.3     1  UNL1       -0.0434
      6 C          -5.1613    5.3820    3.5233 C.3     1  UNL1       -0.0366
      7 C          -6.6201    4.8640    2.9975 C.3     1  UNL1       -0.0468
      8 C          -6.3159    3.6657    2.0132 C.3     1  UNL1       -0.0366
      9 C          -5.6374    2.3635    2.6709 C.3     1  UNL1       -0.0288
     10 C          -5.3622    1.0374    1.8260 C.3     1  UNL1       -0.0333
     11 C          -4.6862   -0.2092    2.5512 C.3     1  UNL1       -0.0288
     12 C          -3.2677    0.2869    3.0893 C.3     1  UNL1       -0.0179
     13 C          -3.7604    1.4833    4.1564 C.3     1  UNL1       -0.0400
     14 H          -4.5671    1.1329    4.8081 H       1  UNL1        0.0276
     15 H          -2.9620    1.7208    4.8594 H       1  UNL1        0.0276
     16 C          -2.1597    0.7415    1.7971 C.3     1  UNL1       -0.0050
     17 C          -2.9861    2.0133    1.8123 C.3     1  UNL1       -0.0141
     18 C          -4.2676    1.5252    0.9131 C.3     1  UNL1       -0.0428
     19 H          -4.0584    0.9090    0.1046 H       1  UNL1        0.0274
     20 H          -4.6935    2.1972    0.2538 H       1  UNL1        0.0274
     21 C          -1.5080    2.3410    2.7311 C.3     1  UNL1       -0.0394
     22 C          -0.3435    2.8609    1.8427 C.3     1  UNL1       -0.0141
     23 C          -0.0470    1.6810    0.7679 C.3     1  UNL1       -0.0050
     24 C          -1.5236    1.2707    0.2548 C.3     1  UNL1       -0.0141
     25 C          -2.0805    2.6216   -0.4804 C.3     1  UNL1       -0.0394
     26 C          -2.3478    3.8222    0.5915 C.3     1  UNL1       -0.0141
     27 C          -2.8981    5.1150   -0.2232 C.3     1  UNL1       -0.0428
     28 C          -3.2172    6.3347    0.7974 C.3     1  UNL1       -0.0333
     29 C          -1.7413    6.7295    1.2953 C.3     1  UNL1       -0.0288
     30 C          -1.2668    5.5074    2.1563 C.3     1  UNL1       -0.0179
     31 C          -0.8983    4.2437    1.1811 C.3     1  UNL1       -0.0050
     32 C           0.3227    4.7633    0.2395 C.3     1  UNL1       -0.0179
     33 C           0.1127    6.1236   -0.5402 C.3     1  UNL1       -0.0434
     34 C          -0.4785    7.1904    0.4209 C.3     1  UNL1       -0.0366
     35 C           0.7715    7.5128    1.3439 C.3     1  UNL1       -0.0468
     36 C           1.1656    6.2333    2.1852 C.3     1  UNL1       -0.0366
     37 C           1.5476    5.0087    1.2237 C.3     1  UNL1       -0.0288
     38 C           2.0586    3.6052    1.8036 C.3     1  UNL1       -0.0333
     39 C           2.3711    2.5100    0.6704 C.3     1  UNL1       -0.0288
     40 C           1.0720    2.3163   -0.2223 C.3     1  UNL1       -0.0179
     41 C           0.8413    3.7499   -0.8287 C.3     1  UNL1       -0.0400
     42 H           0.2564    3.7629   -1.7410 H       1  UNL1        0.0276
     43 H           1.7894    4.1212   -1.2370 H       1  UNL1        0.0276
     44 C           1.4165    1.3928   -1.4424 C.3     1  UNL1       -0.0434
     45 C           1.7194   -0.0604   -0.9487 C.3     1  UNL1       -0.0366
     46 C           3.1199    0.1521   -0.2399 C.3     1  UNL1       -0.0468
     47 C           2.9470    1.0720    1.0354 C.3     1  UNL1       -0.0366
     48 C           2.0137    0.2358    1.9382 C.3     1  UNL1       -0.0434
     49 C           0.5629    0.2485    1.2906 C.3     1  UNL1       -0.0179
     50 C           0.6842   -0.7399    0.0765 C.3     1  UNL1       -0.0288
     51 C          -0.8086   -1.2444   -0.1989 C.3     1  UNL1       -0.0333
     52 C          -1.4329    0.1031   -0.8739 C.3     1  UNL1       -0.0428
     53 H          -2.4115   -0.0808   -1.2941 H       1  UNL1        0.0274
     54 H          -0.9319    0.3567   -1.7794 H       1  UNL1        0.0274
     55 C          -1.3569   -2.0257    1.2991 C.3     1  UNL1       -0.0288
     56 C          -2.0909   -0.7370    1.3961 C.3     1  UNL1       -0.0179
     57 C          -3.4715   -1.4184    0.6353 C.3     1  UNL1       -0.0434
     58 C          -4.5004   -1.5773    1.7548 C.3     1  UNL1       -0.0366
     59 C          -3.7826   -2.7292    2.5426 C.3     1  UNL1       -0.0468
     60 C          -2.3072   -2.2173    2.8039 C.3     1  UNL1       -0.0366
     61 C          -2.6777   -1.0052    3.8870 C.3     1  UNL1       -0.0434
     62 H          -3.3957   -1.3323    4.6469 H       1  UNL1        0.0274
     63 H          -1.8192   -0.7405    4.5004 H       1  UNL1        0.0274
     64 H          -1.8018   -3.0004    3.3778 H       1  UNL1        0.0304
     65 H          -3.7547   -3.6619    1.9682 H       1  UNL1        0.0271
     66 H          -4.3322   -2.9721    3.4565 H       1  UNL1        0.0271
     67 H          -5.4616   -1.9298    1.3689 H       1  UNL1        0.0304
     68 H          -3.3905   -2.3765    0.0960 H       1  UNL1        0.0274
     69 H          -3.9546   -0.9739   -0.2080 H       1  UNL1        0.0274
     70 C          -0.4522   -0.5200    2.2014 C.3     1  UNL1       -0.0400
     71 H           0.1755   -1.3348    2.6889 H       1  UNL1        0.0276
     72 H          -0.3826   -0.0385    3.1563 H       1  UNL1        0.0276
     73 H          -1.6043   -3.0064    0.8732 H       1  UNL1        0.0312
     74 H          -0.7688   -2.0029   -0.9884 H       1  UNL1        0.0307
     75 H           1.1823   -1.6733    0.3715 H       1  UNL1        0.0312
     76 H           2.0871    0.5000    2.9821 H       1  UNL1        0.0274
     77 H           2.4003   -0.7878    2.0150 H       1  UNL1        0.0274
     78 H           3.9162    1.1869    1.5282 H       1  UNL1        0.0304
     79 H           3.8563    0.6015   -0.9127 H       1  UNL1        0.0271
     80 H           3.5474   -0.8191    0.0230 H       1  UNL1        0.0271
     81 H           1.8446   -0.7175   -1.8118 H       1  UNL1        0.0304
     82 H           2.2871    1.7954   -1.9737 H       1  UNL1        0.0274
     83 H           0.6810    1.4461   -2.2334 H       1  UNL1        0.0274
     84 H           3.1794    2.9495    0.0716 H       1  UNL1        0.0312
     85 C           0.9348    3.0861    2.7099 C.3     1  UNL1       -0.0428
     86 H           1.1874    2.2272    3.2726 H       1  UNL1        0.0274
     87 H           0.8084    3.7134    3.5526 H       1  UNL1        0.0274
     88 H           2.9579    3.7692    2.4038 H       1  UNL1        0.0307
     89 H           2.4120    5.3747    0.6558 H       1  UNL1        0.0312
     90 C          -0.1023    6.0426    3.0722 C.3     1  UNL1       -0.0434
     91 H          -0.3821    6.9964    3.5334 H       1  UNL1        0.0274
     92 H           0.0475    5.4801    3.9803 H       1  UNL1        0.0274
     93 H           2.0213    6.4652    2.8255 H       1  UNL1        0.0304
     94 H           1.6368    7.8424    0.7601 H       1  UNL1        0.0271
     95 H           0.5405    8.3618    1.9952 H       1  UNL1        0.0271
     96 H          -0.7403    8.0872   -0.1470 H       1  UNL1        0.0304
     97 H          -0.4352    6.0555   -1.4706 H       1  UNL1        0.0274
     98 H           1.0726    6.4734   -0.9390 H       1  UNL1        0.0274
     99 C          -2.5682    5.2805    3.0073 C.3     1  UNL1       -0.0400
    100 H          -2.2538    4.7509    3.8928 H       1  UNL1        0.0276
    101 H          -2.6163    6.1771    3.6912 H       1  UNL1        0.0276
    102 H          -1.9289    7.6075    1.9284 H       1  UNL1        0.0312
    103 H          -3.5789    7.1749    0.1953 H       1  UNL1        0.0307
    104 H          -3.7513    4.8958   -0.8466 H       1  UNL1        0.0274
    105 H          -2.2602    5.4030   -1.0175 H       1  UNL1        0.0274
    106 H          -2.9853    2.4266   -1.0457 H       1  UNL1        0.0277
    107 H          -1.4864    2.8971   -1.3124 H       1  UNL1        0.0277
    108 H          -1.4972    2.9829    3.6059 H       1  UNL1        0.0277
    109 H          -1.1365    1.7089    3.5502 H       1  UNL1        0.0277
    110 H          -5.3485   -0.4744    3.3827 H       1  UNL1        0.0312
    111 H          -6.2584    0.7292    1.2794 H       1  UNL1        0.0307
    112 H          -6.3246    2.0582    3.4651 H       1  UNL1        0.0312
    113 C          -5.3583    4.4412    1.0867 C.3     1  UNL1       -0.0434
    114 H          -5.8970    5.3067    0.6715 H       1  UNL1        0.0274
    115 H          -5.2858    3.9959    0.1276 H       1  UNL1        0.0274
    116 H          -7.2262    3.3778    1.4797 H       1  UNL1        0.0304
    117 H          -7.1893    5.6702    2.5216 H       1  UNL1        0.0271
    118 H          -7.2327    4.5049    3.8263 H       1  UNL1        0.0271
    119 H          -5.4165    6.2463    4.1841 H       1  UNL1        0.0304
    120 H          -5.4061    3.6860    5.0833 H       1  UNL1        0.0274
    121 H          -3.8087    4.2862    5.1658 H       1  UNL1        0.0274
    122 H          -5.0859    6.7953    1.8553 H       1  UNL1        0.0312
@<TRIPOS>BOND
     1     1     2    1
     2     8     9    1
     3   113     8    1
     4     8     7    1
     5     2     3    1
     6     1     6    1
     7     6     5    1
     8     5     4    1
     9     4     3    1
    10     7     6    1
    11     4     9    1
    12     2   113    1
    13    10    11    1
    14    18    10    1
    15    17    16    1
    16    13    12    1
    17    12    16    1
    18    12    11    1
    19    17    18    1
    20     3    17    1
    21    10     9    1
    22     4    13    1
    23    58    59    1
    24    57    58    1
    25    56    55    1
    26    61    60    1
    27    60    55    1
    28    60    59    1
    29    56    57    1
    30    16    56    1
    31    58    11    1
    32    12    61    1
    33    29    30    1
    34    30    31    1
    35    29    28    1
    36    28    27    1
    37    27    26    1
    38    26    31    1
    39    30    99    1
    40     1    28    1
    41    99     2    1
    42    26     3    1
    43    22    23    1
    44    25    24    1
    45    24    23    1
    46    22    21    1
    47    26    25    1
    48    31    22    1
    49    21    17    1
    50    24    16    1
    51    49    50    1
    52    52    51    1
    53    51    50    1
    54    49    70    1
    55    24    52    1
    56    23    49    1
    57    70    56    1
    58    51    55    1
    59    35    36    1
    60    36    37    1
    61    35    34    1
    62    34    33    1
    63    33    32    1
    64    32    37    1
    65    36    90    1
    66    32    31    1
    67    90    30    1
    68    29    34    1
    69    38    39    1
    70    41    40    1
    71    40    39    1
    72    38    85    1
    73    37    38    1
    74    85    22    1
    75    32    41    1
    76    40    23    1
    77    47    46    1
    78    44    45    1
    79    45    46    1
    80    47    48    1
    81    48    49    1
    82    39    47    1
    83    40    44    1
    84    45    50    1
    85     1   122    1
    86   113   114    1
    87   113   115    1
    88     8   116    1
    89     7   117    1
    90     7   118    1
    91     6   119    1
    92     5   120    1
    93     5   121    1
    94     9   112    1
    95    18    19    1
    96    18    20    1
    97    10   111    1
    98    13    14    1
    99    13    15    1
   100    11   110    1
   101    57    68    1
   102    57    69    1
   103    58    67    1
   104    61    62    1
   105    61    63    1
   106    60    64    1
   107    55    73    1
   108    59    65    1
   109    59    66    1
   110    29   102    1
   111    99   100    1
   112    99   101    1
   113    28   103    1
   114    27   104    1
   115    27   105    1
   116    21   108    1
   117    21   109    1
   118    25   106    1
   119    25   107    1
   120    70    71    1
   121    70    72    1
   122    52    53    1
   123    52    54    1
   124    51    74    1
   125    50    75    1
   126    35    94    1
   127    35    95    1
   128    36    93    1
   129    90    91    1
   130    90    92    1
   131    34    96    1
   132    33    97    1
   133    33    98    1
   134    37    89    1
   135    38    88    1
   136    85    86    1
   137    85    87    1
   138    41    42    1
   139    41    43    1
   140    39    84    1
   141    47    78    1
   142    48    76    1
   143    48    77    1
   144    44    82    1
   145    44    83    1
   146    45    81    1
   147    46    79    1
   148    46    80    1
