@<TRIPOS>MOLECULE
*****
 12 12 0 0 0
SMALL
GASTEIGER

@<TRIPOS>ATOM
      1 C          -0.7131    1.2038    0.0000 C.ar    1  UNL1       -0.0618
      2 C          -0.0090   -0.0157    0.0000 C.ar    1  UNL1       -0.0618
      3 C           1.3990   -0.0157    0.0000 C.ar    1  UNL1       -0.0618
      4 C           2.1031    1.2038    0.0000 C.ar    1  UNL1       -0.0618
      5 C           1.3990    2.4232   -0.0000 C.ar    1  UNL1       -0.0618
      6 C          -0.0090    2.4232   -0.0000 C.ar    1  UNL1       -0.0618
      7 H          -1.7355    1.2038   -0.0000 H       1  UNL1        0.0618
      8 H          -0.5203   -0.9011   -0.0000 H       1  UNL1        0.0618
      9 H           1.9103   -0.9011   -0.0000 H       1  UNL1        0.0618
     10 H           3.1255    1.2038   -0.0000 H       1  UNL1        0.0618
     11 H           1.9103    3.3087    0.0000 H       1  UNL1        0.0618
     12 H          -0.5203    3.3087    0.0000 H       1  UNL1        0.0618
@<TRIPOS>BOND
     1     1     2   ar
     2     2     3   ar
     3     3     4   ar
     4     4     5   ar
     5     5     6   ar
     6     1     6   ar
     7     1     7    1
     8     2     8    1
     9     3     9    1
    10     4    10    1
    11     5    11    1
    12     6    12    1
