@<TRIPOS>MOLECULE
*****
 78 85 0 0 0
SMALL
GASTEIGER

@<TRIPOS>ATOM
      1 C           0.0000    0.0000    0.0000 C.ar    1  UNL1       -0.0173
      2 C           1.3188    0.1296   -0.2356 C.ar    1  UNL1       -0.0540
      3 C           1.8752    1.3429   -0.3568 C.ar    1  UNL1       -0.0612
      4 C           1.1021    2.4304   -0.2581 C.ar    1  UNL1       -0.0611
      5 C          -0.2095    2.2977   -0.0106 C.ar    1  UNL1       -0.0534
      6 C          -0.7818    1.0889    0.1569 C.ar    1  UNL1       -0.0095
      7 C          -2.1014    0.9507    0.4263 C.ar    1  UNL1       -0.0008
      8 C          -2.6543   -0.2840    0.4810 C.ar    1  UNL1       -0.0063
      9 C          -1.8656   -1.3564    0.2939 C.ar    1  UNL1       -0.0524
     10 C          -0.5519   -1.2215    0.0710 C.ar    1  UNL1       -0.0534
     11 H           0.0586   -2.1316   -0.0651 H       1  UNL1        0.0624
     12 H          -2.2624   -2.3832    0.3291 H       1  UNL1        0.0624
     13 P          -4.4449   -0.5170    0.8501 P.3     1  UNL1       -0.0125
     14 C          -4.4188   -2.1706    1.6444 C.ar    1  UNL1       -0.0147
     15 C          -4.1901   -2.2251    2.9686 C.ar    1  UNL1       -0.0535
     16 C          -4.1305   -3.4038    3.6080 C.ar    1  UNL1       -0.0611
     17 C          -4.2941   -4.5479    2.9276 C.ar    1  UNL1       -0.0617
     18 C          -4.5325   -4.5043    1.6085 C.ar    1  UNL1       -0.0611
     19 C          -4.5954   -3.3236    0.9739 C.ar    1  UNL1       -0.0535
     20 H          -4.7778   -3.3378   -0.1130 H       1  UNL1        0.0624
     21 H          -4.6672   -5.4425    1.0419 H       1  UNL1        0.0618
     22 H          -4.2310   -5.5199    3.4473 H       1  UNL1        0.0618
     23 H          -3.9361   -3.4343    4.6939 H       1  UNL1        0.0618
     24 H          -4.0385   -1.2998    3.5510 H       1  UNL1        0.0624
     25 C          -5.1710   -0.9423   -0.7768 C.ar    1  UNL1       -0.0147
     26 C          -6.5139   -0.9990   -0.8441 C.ar    1  UNL1       -0.0535
     27 C          -7.1349   -1.3092   -1.9927 C.ar    1  UNL1       -0.0611
     28 C          -6.4182   -1.5666   -3.0964 C.ar    1  UNL1       -0.0617
     29 C          -5.0790   -1.5168   -3.0400 C.ar    1  UNL1       -0.0611
     30 C          -4.4611   -1.2172   -1.8860 C.ar    1  UNL1       -0.0535
     31 H          -3.3594   -1.2013   -1.8856 H       1  UNL1        0.0624
     32 H          -4.4867   -1.7282   -3.9477 H       1  UNL1        0.0618
     33 H          -6.9250   -1.8216   -4.0432 H       1  UNL1        0.0618
     34 H          -8.2373   -1.3529   -2.0295 H       1  UNL1        0.0618
     35 H          -7.1310   -0.7944    0.0488 H       1  UNL1        0.0624
     36 C          -2.8721    2.0316    0.6817 C.ar    1  UNL1       -0.0008
     37 C          -2.7721    2.6460    1.8843 C.ar    1  UNL1       -0.0063
     38 C          -3.5912    3.6769    2.1553 C.ar    1  UNL1       -0.0524
     39 C          -4.5042    4.0900    1.2673 C.ar    1  UNL1       -0.0534
     40 C          -4.5982    3.4956    0.0678 C.ar    1  UNL1       -0.0173
     41 C          -5.5103    3.9226   -0.8252 C.ar    1  UNL1       -0.0540
     42 C          -5.5841    3.3708   -2.0445 C.ar    1  UNL1       -0.0612
     43 C          -4.7273    2.3978   -2.3748 C.ar    1  UNL1       -0.0611
     44 C          -3.8280    1.9660   -1.4781 C.ar    1  UNL1       -0.0534
     45 C          -3.7648    2.4776   -0.2329 C.ar    1  UNL1       -0.0095
     46 H          -3.1307    1.1817   -1.8158 H       1  UNL1        0.0624
     47 H          -4.7555    1.9564   -3.3857 H       1  UNL1        0.0618
     48 H          -6.3270    3.7337   -2.7759 H       1  UNL1        0.0618
     49 H          -6.2078    4.7419   -0.5777 H       1  UNL1        0.0624
     50 H          -5.1638    4.9336    1.5389 H       1  UNL1        0.0624
     51 H          -3.5537    4.2117    3.1176 H       1  UNL1        0.0624
     52 P          -1.5742    2.0675    3.1598 P.3     1  UNL1       -0.0125
     53 C          -0.2417    3.3230    3.1041 C.ar    1  UNL1       -0.0147
     54 C          -0.3063    4.4813    2.4228 C.ar    1  UNL1       -0.0535
     55 C           0.7227    5.3439    2.4358 C.ar    1  UNL1       -0.0611
     56 C           1.8253    5.0698    3.1486 C.ar    1  UNL1       -0.0617
     57 C           1.8939    3.9251    3.8435 C.ar    1  UNL1       -0.0611
     58 C           0.8679    3.0603    3.8189 C.ar    1  UNL1       -0.0535
     59 H           0.9526    2.1268    4.4032 H       1  UNL1        0.0624
     60 H           2.7958    3.6942    4.4367 H       1  UNL1        0.0618
     61 H           2.6672    5.7835    3.1658 H       1  UNL1        0.0618
     62 H           0.6641    6.2860    1.8626 H       1  UNL1        0.0618
     63 H          -1.1958    4.7561    1.8334 H       1  UNL1        0.0624
     64 C          -2.4404    2.5710    4.6967 C.ar    1  UNL1       -0.0147
     65 C          -2.2438    3.7512    5.3119 C.ar    1  UNL1       -0.0535
     66 C          -2.9337    4.0736    6.4169 C.ar    1  UNL1       -0.0611
     67 C          -3.8305    3.2157    6.9251 C.ar    1  UNL1       -0.0617
     68 C          -4.0240    2.0307    6.3276 C.ar    1  UNL1       -0.0611
     69 C          -3.3349    1.7139    5.2203 C.ar    1  UNL1       -0.0535
     70 H          -3.5240    0.7374    4.7416 H       1  UNL1        0.0624
     71 H          -4.7595    1.3205    6.7431 H       1  UNL1        0.0618
     72 H          -4.4061    3.4860    7.8276 H       1  UNL1        0.0618
     73 H          -2.7699    5.0515    6.9032 H       1  UNL1        0.0618
     74 H          -1.5292    4.4942    4.9219 H       1  UNL1        0.0624
     75 H          -0.8007    3.2268    0.0329 H       1  UNL1        0.0624
     76 H           1.5412    3.4341   -0.3874 H       1  UNL1        0.0618
     77 H           2.9559    1.4419   -0.5615 H       1  UNL1        0.0618
     78 H           1.9663   -0.7573   -0.3453 H       1  UNL1        0.0624
@<TRIPOS>BOND
     1     1     2   ar
     2     2     3   ar
     3     3     4   ar
     4     4     5   ar
     5     5     6   ar
     6     7     8   ar
     7     8     9   ar
     8     9    10   ar
     9     1     6   ar
    10     1    10   ar
    11     6     7   ar
    12     7    36    1
    13    37    36   ar
    14    45    36   ar
    15    45    44   ar
    16    44    43   ar
    17    43    42   ar
    18    42    41   ar
    19    41    40   ar
    20    39    38   ar
    21    38    37   ar
    22    45    40   ar
    23    40    39   ar
    24    37    52    1
    25    13     8    1
    26    13    14    1
    27    13    25    1
    28    52    53    1
    29    52    64    1
    30    26    27   ar
    31    27    28   ar
    32    28    29   ar
    33    29    30   ar
    34    25    26   ar
    35    25    30   ar
    36    15    16   ar
    37    16    17   ar
    38    17    18   ar
    39    18    19   ar
    40    14    15   ar
    41    14    19   ar
    42    65    66   ar
    43    66    67   ar
    44    67    68   ar
    45    68    69   ar
    46    64    65   ar
    47    64    69   ar
    48    54    55   ar
    49    55    56   ar
    50    56    57   ar
    51    57    58   ar
    52    53    54   ar
    53    53    58   ar
    54    10    11    1
    55     2    78    1
    56     3    77    1
    57     4    76    1
    58     5    75    1
    59    44    46    1
    60    43    47    1
    61    42    48    1
    62    41    49    1
    63    39    50    1
    64    38    51    1
    65     9    12    1
    66    15    24    1
    67    16    23    1
    68    17    22    1
    69    18    21    1
    70    19    20    1
    71    26    35    1
    72    27    34    1
    73    28    33    1
    74    29    32    1
    75    30    31    1
    76    65    74    1
    77    66    73    1
    78    67    72    1
    79    68    71    1
    80    69    70    1
    81    54    63    1
    82    58    59    1
    83    57    60    1
    84    56    61    1
    85    55    62    1
