@<TRIPOS>MOLECULE
*****
 57 59 0 0 0
SMALL
GASTEIGER

@<TRIPOS>ATOM
      1 C           0.0000    0.0000    0.0000 C.3     1  UNL1        0.0211
      2 C          -0.5280   -1.3105   -0.5646 C.2     1  UNL1        0.2132
      3 O          -1.3361   -1.3238   -1.4619 O.2     1  UNL1       -0.2758
      4 N          -0.0042   -2.4494    0.0182 N.am    1  UNL1       -0.3085
      5 C          -0.4273   -3.8059   -0.3467 C.3     1  UNL1        0.0493
      6 C          -1.6209   -4.1050    0.5698 C.3     1  UNL1       -0.0263
      7 C          -2.9476   -3.9511   -0.1713 C.3     1  UNL1       -0.0249
      8 C          -3.1116   -5.2856   -0.8449 C.ar    1  UNL1       -0.0324
      9 C          -2.3148   -5.6846   -1.8545 C.ar    1  UNL1        0.0312
     10 C          -1.4129   -4.8656   -2.4649 C.ar    1  UNL1       -0.0088
     11 C          -0.5221   -4.0362   -1.8710 C.ar    1  UNL1       -0.0157
     12 C           0.4843   -3.3966   -2.5097 C.ar    1  UNL1       -0.0057
     13 C           0.8843   -3.2325   -3.7972 C.ar    1  UNL1        0.2206
     14 O           1.9026   -2.5958   -3.9763 O.2     1  UNL1       -0.2840
     15 C           0.2474   -3.6765   -4.9113 C.ar    1  UNL1        0.1665
     16 O           0.7793   -3.4250   -6.1598 O.3     1  UNL1       -0.4913
     17 C           0.1561   -2.3478   -6.8336 C.3     1  UNL1        0.0790
     18 H          -0.9220   -2.5761   -7.0091 H       1  UNL1        0.0660
     19 H           0.6628   -2.2109   -7.8171 H       1  UNL1        0.0660
     20 H           0.2573   -1.4142   -6.2310 H       1  UNL1        0.0660
     21 C          -0.8397   -4.4508   -4.8330 C.ar    1  UNL1       -0.0155
     22 C          -1.5359   -4.9456   -3.8064 C.ar    1  UNL1       -0.0500
     23 H          -2.4061   -5.5073   -4.1969 H       1  UNL1        0.0625
     24 H          -1.2316   -4.7451   -5.8242 H       1  UNL1        0.0655
     25 H           1.2168   -2.8896   -1.8598 H       1  UNL1        0.0660
     26 C          -2.4365   -6.9781   -2.2748 C.ar    1  UNL1        0.1731
     27 C          -3.4307   -7.7734   -1.8089 C.ar    1  UNL1        0.2041
     28 O          -3.6090   -9.0410   -2.3175 O.3     1  UNL1       -0.4885
     29 C          -2.9710  -10.0630   -1.5747 C.3     1  UNL1        0.0791
     30 H          -3.3401  -10.0620   -0.5219 H       1  UNL1        0.0660
     31 H          -3.2160  -11.0420   -2.0492 H       1  UNL1        0.0660
     32 H          -1.8654   -9.9191   -1.5920 H       1  UNL1        0.0660
     33 C          -4.3430   -7.2905   -0.9423 C.ar    1  UNL1        0.1655
     34 C          -4.1015   -6.0832   -0.4139 C.ar    1  UNL1       -0.0123
     35 H          -4.7672   -5.7428    0.3964 H       1  UNL1        0.0658
     36 O          -5.3632   -8.0734   -0.4608 O.3     1  UNL1       -0.4913
     37 C          -6.5339   -8.0345   -1.2556 C.3     1  UNL1        0.0790
     38 H          -7.2920   -8.7050   -0.7874 H       1  UNL1        0.0660
     39 H          -6.9340   -6.9933   -1.2954 H       1  UNL1        0.0660
     40 H          -6.3154   -8.4032   -2.2859 H       1  UNL1        0.0660
     41 O          -1.5811   -7.5531   -3.1996 O.3     1  UNL1       -0.4907
     42 C          -0.2373   -7.7063   -2.7665 C.3     1  UNL1        0.0790
     43 H           0.2954   -6.7283   -2.7430 H       1  UNL1        0.0660
     44 H           0.2879   -8.3692   -3.4942 H       1  UNL1        0.0660
     45 H          -0.2098   -8.1787   -1.7566 H       1  UNL1        0.0660
     46 H          -3.7645   -3.7437    0.5596 H       1  UNL1        0.0314
     47 H          -2.9617   -3.1115   -0.9008 H       1  UNL1        0.0314
     48 H          -1.6039   -3.4300    1.4596 H       1  UNL1        0.0289
     49 H          -1.5371   -5.1298    1.0074 H       1  UNL1        0.0289
     50 H           0.4146   -4.4565   -0.0072 H       1  UNL1        0.0548
     51 H           0.5983   -2.3025    0.8275 H       1  UNL1        0.1493
     52 C          -0.6475    1.2465   -0.6160 C.3     1  UNL1       -0.0570
     53 H          -0.2109    2.1773   -0.1856 H       1  UNL1        0.0234
     54 H          -0.4895    1.2851   -1.7187 H       1  UNL1        0.0234
     55 H          -1.7436    1.2690   -0.4157 H       1  UNL1        0.0234
     56 H           1.1010    0.0317   -0.1807 H       1  UNL1        0.0356
     57 H          -0.1687    0.0051    1.1035 H       1  UNL1        0.0356
@<TRIPOS>BOND
     1     2     1    1
     2     2     3    2
     3     4     2   am
     4     6     7    1
     5     5     4    1
     6     5     6    1
     7    11     5    1
     8    12    11   ar
     9    13    12   ar
    10    13    14    2
    11    16    17    1
    12    15    13   ar
    13    15    16    1
    14    21    15   ar
    15    22    21   ar
    16    10    11   ar
    17    10    22   ar
    18    28    29    1
    19    27    28    1
    20    41    42    1
    21    26    27   ar
    22    26    41    1
    23     9    10    1
    24     9    26   ar
    25     8     7    1
    26     8     9   ar
    27    34     8   ar
    28    33    27   ar
    29    33    34   ar
    30    36    33    1
    31    37    36    1
    32    17    18    1
    33    17    19    1
    34    17    20    1
    35    21    24    1
    36    22    23    1
    37     4    51    1
    38    12    25    1
    39     1    52    1
    40     1    56    1
    41     1    57    1
    42    52    53    1
    43    52    54    1
    44    52    55    1
    45     6    48    1
    46     6    49    1
    47     7    46    1
    48     7    47    1
    49    34    35    1
    50    37    38    1
    51    29    30    1
    52    29    31    1
    53    29    32    1
    54    37    39    1
    55    37    40    1
    56    42    43    1
    57    42    44    1
    58    42    45    1
    59     5    50    1
