@<TRIPOS>MOLECULE
*****
 36 42 0 0 0
SMALL
GASTEIGER

@<TRIPOS>ATOM
      1 C          -2.8094    2.4620    0.1893 C.ar    1  UNL1       -0.0166
      2 C          -4.2205    2.4578    0.1441 C.ar    1  UNL1       -0.0534
      3 C          -4.9280    1.2499    0.0071 C.ar    1  UNL1       -0.0534
      4 C          -4.2391    0.0213   -0.0874 C.ar    1  UNL1       -0.0166
      5 C          -4.9373   -1.1979   -0.2252 C.ar    1  UNL1       -0.0534
      6 C          -4.2390   -2.4154   -0.3184 C.ar    1  UNL1       -0.0534
      7 C          -2.8281   -2.4386   -0.2758 C.ar    1  UNL1       -0.0166
      8 C          -2.1153   -3.6537   -0.3683 C.ar    1  UNL1       -0.0534
      9 C          -0.7094   -3.6632   -0.3245 C.ar    1  UNL1       -0.0534
     10 C           0.0126   -2.4578   -0.1873 C.ar    1  UNL1       -0.0166
     11 C          -0.6933   -1.2272   -0.0931 C.ar    1  UNL1       -0.0013
     12 C          -2.1129   -1.2176   -0.1373 C.ar    1  UNL1       -0.0013
     13 C          -2.8180    0.0117   -0.0432 C.ar    1  UNL1       -0.0013
     14 C          -2.1036    1.2314    0.0951 C.ar    1  UNL1       -0.0013
     15 C          -0.6840    1.2218    0.1393 C.ar    1  UNL1       -0.0013
     16 C           0.0212   -0.0075    0.0452 C.ar    1  UNL1       -0.0013
     17 C           1.4422   -0.0171    0.0894 C.ar    1  UNL1       -0.0166
     18 C           2.1404    1.2021    0.2272 C.ar    1  UNL1       -0.0534
     19 H           3.1642    1.2109    0.2605 H       1  UNL1        0.0624
     20 C           1.4421    2.4196    0.3204 C.ar    1  UNL1       -0.0534
     21 C           0.0312    2.4428    0.2777 C.ar    1  UNL1       -0.0166
     22 C          -0.6816    3.6579    0.3703 C.ar    1  UNL1       -0.0534
     23 H          -0.1800    4.5453    0.4703 H       1  UNL1        0.0624
     24 C          -2.0875    3.6674    0.3265 C.ar    1  UNL1       -0.0534
     25 H          -2.5823    4.5616    0.3955 H       1  UNL1        0.0624
     26 H           1.9709    3.2912    0.4198 H       1  UNL1        0.0624
     27 C           2.1311   -1.2457   -0.0051 C.ar    1  UNL1       -0.0534
     28 H           3.1547   -1.2683    0.0252 H       1  UNL1        0.0624
     29 C           1.4236   -2.4536   -0.1421 C.ar    1  UNL1       -0.0534
     30 H           1.9457   -3.3323   -0.2088 H       1  UNL1        0.0624
     31 H          -0.2146   -4.5574   -0.3936 H       1  UNL1        0.0624
     32 H          -2.6169   -4.5411   -0.4684 H       1  UNL1        0.0624
     33 H          -4.7678   -3.2870   -0.4178 H       1  UNL1        0.0624
     34 H          -5.9610   -1.2067   -0.2585 H       1  UNL1        0.0624
     35 H          -5.9516    1.2725   -0.0233 H       1  UNL1        0.0624
     36 H          -4.7426    3.3365    0.2108 H       1  UNL1        0.0624
@<TRIPOS>BOND
     1    11    12   ar
     2    13    12   ar
     3    15    16   ar
     4    13    14   ar
     5    18    17   ar
     6    21    20   ar
     7    11    10   ar
     8     9     8   ar
     9     7     8   ar
    10    10     9   ar
    11     7    12   ar
    12     5     4   ar
    13     5     6   ar
    14     4    13   ar
    15     7     6   ar
    16     3     2   ar
    17     2     1   ar
    18     3     4   ar
    19     3    35    1
    20     5    34    1
    21     6    33    1
    22     8    32    1
    23     9    31    1
    24    29    30    1
    25    27    28    1
    26    18    19    1
    27    20    26    1
    28    22    23    1
    29    24    25    1
    30     2    36    1
    31    21    15   ar
    32    17    16   ar
    33    16    11   ar
    34    29    10   ar
    35    27    29   ar
    36    17    27   ar
    37    15    14   ar
    38     1    14   ar
    39     1    24   ar
    40    24    22   ar
    41    22    21   ar
    42    20    18   ar
