@<TRIPOS>MOLECULE
*****
 6 5 0 0 0
SMALL
GASTEIGER

@<TRIPOS>ATOM
      1 C          -0.0532   -0.0602   -0.0100 C.3     1  UNL1        0.1605
      2 C           1.3212   -0.1803   -0.0100 C.1     1  UNL1        0.0832
      3 N           2.4842   -0.3187   -0.0100 N.1     1  UNL1       -0.1951
      4 C          -0.7102    1.1530   -0.0100 C.1     1  UNL1        0.0832
      5 N          -1.2999    2.1649   -0.0100 N.1     1  UNL1       -0.1951
      6 H          -0.6453   -0.9624   -0.0100 H       1  UNL1        0.0634
@<TRIPOS>BOND
     1     3     2    3
     2     2     1    1
     3     1     4    1
     4     4     5    3
     5     1     6    1
