@<TRIPOS>MOLECULE
*****
 14 13 0 0 0
SMALL
GASTEIGER

@<TRIPOS>ATOM
      1 C           0.0000    0.0000    0.0000 C.3     1  UNL1        0.0544
      2 O           1.4336    0.0000    0.0000 O.3     1  UNL1       -0.2813
      3 S           2.2088    1.5364    0.0000 S.O     1  UNL1        0.2769
      4 S           1.8731    2.4614   -1.8671 S.O     1  UNL1        0.2769
      5 O           2.4992    1.4093   -3.0751 O.3     1  UNL1       -0.2813
      6 C           1.8476    0.1413   -3.2228 C.3     1  UNL1        0.0544
      7 H           2.3742   -0.4529   -3.9696 H       1  UNL1        0.0537
      8 H           1.8558   -0.3847   -2.2682 H       1  UNL1        0.0537
      9 H           0.8174    0.2973   -3.5430 H       1  UNL1        0.0537
     10 O           0.2887    2.4819   -2.0782 O.2     1  UNL1       -0.2112
     11 O           1.3812    2.4320    1.0364 O.2     1  UNL1       -0.2112
     12 H          -0.3633   -0.6270   -0.8142 H       1  UNL1        0.0537
     13 H          -0.3633   -0.3916    0.9501 H       1  UNL1        0.0537
     14 H          -0.3633    1.0186   -0.1359 H       1  UNL1        0.0537
@<TRIPOS>BOND
     1     3     4    1
     2     4     5    1
     3     4    10    2
     4     3    11    2
     5     3     2    1
     6     2     1    1
     7     5     6    1
     8     1    12    1
     9     1    13    1
    10     1    14    1
    11     6     7    1
    12     6     8    1
    13     6     9    1
