@<TRIPOS>MOLECULE
*****
 19 18 0 0 0
SMALL
GASTEIGER

@<TRIPOS>ATOM
      1 SI          0.0000    0.0000    0.0000 Si      1  UNL1        0.0000
      2 C           1.7514    0.0000    0.0000 C.3     1  UNL1        0.0000
      3 H           2.1148    1.0277    0.0000 H       1  UNL1        0.0000
      4 H           2.1148   -0.5138    0.8900 H       1  UNL1        0.0000
      5 H           2.1148   -0.5138   -0.8900 H       1  UNL1        0.0000
      6 C          -0.5601   -0.8076    1.4485 C.3     1  UNL1        0.0000
      7 H          -1.0018   -0.0757    2.1248 H       1  UNL1        0.0000
      8 H          -1.3084   -1.5540    1.1820 H       1  UNL1        0.0000
      9 H           0.2810   -1.2958    1.9406 H       1  UNL1        0.0000
     10 C          -0.5603   -0.8076   -1.4483 C.3     1  UNL1        0.0000
     11 H          -1.0020   -0.0757   -2.1246 H       1  UNL1        0.0000
     12 H           0.2808   -1.2959   -1.9405 H       1  UNL1        0.0000
     13 H          -1.3085   -1.5540   -1.1818 H       1  UNL1        0.0000
     14 O          -0.4585    1.5791    0.0000 O.2     1  UNL1        0.0000
     15 C          -1.7364    2.0222    0.0001 C.2     1  UNL1        0.0000
     16 C          -2.8955    1.3451    0.0001 C.2     1  UNL1        0.0000
     17 CL         -4.3634    2.1252    0.0002 Cl      1  UNL1        0.0000
     18 H          -2.8736    0.2553    0.0001 H       1  UNL1        0.0000
     19 H          -1.8425    3.1070    0.0002 H       1  UNL1        0.0000
@<TRIPOS>BOND
     1     1     2    1
     2     1     6    1
     3     1    10    1
     4    15    16    2
     5    16    17    1
     6    14    15    1
     7     1    14    1
     8     2     3    1
     9     2     4    1
    10     2     5    1
    11     6     7    1
    12     6     8    1
    13     6     9    1
    14    10    11    1
    15    10    12    1
    16    10    13    1
    17    15    19    1
    18    16    18    1
