@<TRIPOS>MOLECULE
*****
 6 5 0 0 0
SMALL
GASTEIGER

@<TRIPOS>ATOM
      1 C          -0.2511    0.0016   -0.0110 C.2     1  UNL1       -0.1058
      2 C           1.0761    0.0016   -0.0090 C.2     1  UNL1       -0.1058
      3 H           1.6731    0.9036   -0.0082 H       1  UNL1        0.0529
      4 H           1.6731   -0.9005   -0.0082 H       1  UNL1        0.0529
      5 H          -0.8481   -0.9005   -0.0118 H       1  UNL1        0.0529
      6 H          -0.8481    0.9036   -0.0118 H       1  UNL1        0.0529
@<TRIPOS>BOND
     1     1     2    2
     2     1     5    1
     3     1     6    1
     4     2     3    1
     5     2     4    1
