@<TRIPOS>MOLECULE
*****
 42 45 0 0 0
SMALL
GASTEIGER

@<TRIPOS>ATOM
      1 C           0.0000    0.0000    0.0000 C.3     1  UNL1        0.0242
      2 C           0.8141    1.2649    0.2145 C.2     1  UNL1        0.2158
      3 O           2.0164    1.1438    0.2729 O.2     1  UNL1       -0.2756
      4 N           0.1725    2.4959    0.3108 N.am    1  UNL1       -0.2978
      5 C           0.9926    3.6680    0.5941 C.3     1  UNL1        0.0192
      6 C           0.5690    4.8330   -0.3145 C.3     1  UNL1       -0.0092
      7 C           1.3600    6.1142   -0.0081 C.3     1  UNL1       -0.0462
      8 C           0.9282    6.7029    1.3383 C.3     1  UNL1       -0.0398
      9 C          -0.5952    6.8796    1.3773 C.3     1  UNL1       -0.0008
     10 N          -1.3282    5.6521    1.0751 N.3     1  UNL1       -0.2987
     11 C          -2.7640    5.9105    1.1566 C.3     1  UNL1       -0.0008
     12 C          -3.6226    4.6789    0.8408 C.3     1  UNL1       -0.0398
     13 C          -3.2283    4.1075   -0.5236 C.3     1  UNL1       -0.0459
     14 C          -1.7206    3.8036   -0.5567 C.3     1  UNL1       -0.0064
     15 C          -1.2877    2.6166    0.3393 C.3     1  UNL1        0.0303
     16 C          -2.0645    1.3371   -0.0122 C.3     1  UNL1       -0.0335
     17 C          -1.3972    0.1092    0.6070 C.3     1  UNL1       -0.0431
     18 H          -1.3353    0.2161    1.7165 H       1  UNL1        0.0270
     19 H          -1.9881   -0.8123    0.3859 H       1  UNL1        0.0270
     20 H          -3.1150    1.3995    0.3584 H       1  UNL1        0.0283
     21 H          -2.1101    1.2076   -1.1193 H       1  UNL1        0.0283
     22 H          -1.5218    2.8570    1.4025 H       1  UNL1        0.0504
     23 C          -0.9473    5.1014   -0.2233 C.3     1  UNL1        0.0192
     24 H          -1.1982    5.8572   -1.0085 H       1  UNL1        0.0469
     25 H          -1.4626    3.5166   -1.6060 H       1  UNL1        0.0334
     26 H          -3.4691    4.8604   -1.3119 H       1  UNL1        0.0269
     27 H          -3.8417    3.2107   -0.7702 H       1  UNL1        0.0269
     28 H          -4.7042    4.9575    0.8374 H       1  UNL1        0.0278
     29 H          -3.4978    3.9098    1.6382 H       1  UNL1        0.0278
     30 H          -3.0453    6.7268    0.4484 H       1  UNL1        0.0427
     31 H          -3.0233    6.2628    2.1841 H       1  UNL1        0.0427
     32 H          -0.8772    7.2441    2.3945 H       1  UNL1        0.0427
     33 H          -0.8761    7.6805    0.6517 H       1  UNL1        0.0427
     34 H           1.4326    7.6862    1.5002 H       1  UNL1        0.0278
     35 H           1.2531    6.0438    2.1767 H       1  UNL1        0.0278
     36 H           1.1675    6.8662   -0.8104 H       1  UNL1        0.0269
     37 H           2.4575    5.9119   -0.0121 H       1  UNL1        0.0269
     38 H           0.8085    4.5308   -1.3648 H       1  UNL1        0.0331
     39 H           2.0821    3.4851    0.4479 H       1  UNL1        0.0468
     40 H           0.8441    3.9124    1.6698 H       1  UNL1        0.0468
     41 H           0.5383   -0.8753    0.4356 H       1  UNL1        0.0358
     42 H          -0.0729   -0.1706   -1.1000 H       1  UNL1        0.0358
@<TRIPOS>BOND
     1     3     2    2
     2     2     1    1
     3     1    17    1
     4    17    16    1
     5    16    15    1
     6    15    14    1
     7    14    13    1
     8    13    12    1
     9    12    11    1
    10    11    10    1
    11    10     9    1
    12     9     8    1
    13     8     7    1
    14     7     6    1
    15     6     5    1
    16     5     4    1
    17     2     4   am
    18    15     4    1
    19     6    23    1
    20    14    23    1
    21    23    10    1
    22    15    22    1
    23    14    25    1
    24    23    24    1
    25     6    38    1
    26     1    41    1
    27     1    42    1
    28    17    18    1
    29    17    19    1
    30    16    20    1
    31    16    21    1
    32    13    26    1
    33    13    27    1
    34    12    28    1
    35    12    29    1
    36    11    30    1
    37    11    31    1
    38     9    32    1
    39     9    33    1
    40     8    34    1
    41     8    35    1
    42     7    36    1
    43     7    37    1
    44     5    39    1
    45     5    40    1
