@<TRIPOS>MOLECULE
*****
 5 4 0 0 0
SMALL
GASTEIGER

@<TRIPOS>ATOM
      1 C           0.0028   -0.0014   -0.0016 C.3     1  UNL1       -0.0776
      2 H           1.0873   -0.0052   -0.0022 H       1  UNL1        0.0194
      3 H          -0.3551    1.0223   -0.0017 H       1  UNL1        0.0194
      4 H          -0.3610   -0.5117   -0.8867 H       1  UNL1        0.0194
      5 H          -0.3600   -0.5111    0.8843 H       1  UNL1        0.0194
@<TRIPOS>BOND
     1     1     2    1
     2     1     3    1
     3     1     4    1
     4     1     5    1
