@<TRIPOS>MOLECULE
*****
 8 7 0 0 0
SMALL
GASTEIGER

@<TRIPOS>ATOM
      1 C           0.3027   -0.4429    0.1549 C.3     1  UNL1        0.0800
      2 O           1.4806    0.1208   -0.4844 O.3     1  UNL1       -0.4827
      3 C           1.7451    1.4383   -0.3497 C.2     1  UNL1        0.2112
      4 S           3.1606    1.7696   -1.1988 S.3     1  UNL1       -0.0033
      5 S           0.6991    2.3978    0.5592 S.2     1  UNL1       -0.0033
      6 H          -0.5978    0.0380   -0.2386 H       1  UNL1        0.0660
      7 H           0.3644   -1.4945   -0.1313 H       1  UNL1        0.0660
      8 H           0.3692   -0.3073    1.2385 H       1  UNL1        0.0660
@<TRIPOS>BOND
     1     2     3    1
     2     3     4    1
     3     3     5    2
     4     2     1    1
     5     1     6    1
     6     1     7    1
     7     1     8    1
