@<TRIPOS>MOLECULE
*****
 38 42 0 0 0
SMALL
GASTEIGER

@<TRIPOS>ATOM
      1 C           0.0000    0.0000    0.0000 C.2     1  UNL1       -0.0342
      2 C           1.3340   -0.1047   -0.0179 C.2     1  UNL1       -0.0342
      3 C           1.8099    1.1501   -0.0010 C.2     1  UNL1        0.0665
      4 N           0.8200    1.9413    0.0100 N.2     1  UNL1       -0.2477
      5 C          -0.2796    1.3132    0.0227 C.2     1  UNL1        0.0665
      6 C          -1.5186    1.8283    0.0501 C.2     1  UNL1       -0.0129
      7 C          -1.8447    3.1293    0.0633 C.ar    1  UNL1        0.0417
      8 C          -3.0982    3.6104    0.0855 C.ar    1  UNL1       -0.0364
      9 C          -3.0070    4.9470    0.0853 C.ar    1  UNL1       -0.0364
     10 C          -1.6998    5.2536    0.0629 C.ar    1  UNL1        0.0417
     11 N          -1.0794    4.1442    0.0536 N.ar    1  UNL1       -0.3550
     12 H          -0.0350    4.0732    0.0359 H       1  UNL1        0.1659
     13 C          -1.2002    6.4983    0.0492 C.2     1  UNL1       -0.0129
     14 C           0.0970    6.8411    0.0215 C.2     1  UNL1        0.0665
     15 C           0.5520    8.1044   -0.0019 C.2     1  UNL1       -0.0342
     16 C           1.8879    8.0273   -0.0199 C.2     1  UNL1       -0.0342
     17 C           2.1894    6.7196   -0.0023 C.2     1  UNL1        0.0665
     18 N           1.1014    6.0699    0.0090 N.2     1  UNL1       -0.2477
     19 C           3.4338    6.2169    0.0090 C.2     1  UNL1       -0.0129
     20 C           3.7237    4.9067    0.0532 C.ar    1  UNL1        0.0417
     21 C           4.9721    4.4058    0.0589 C.ar    1  UNL1       -0.0364
     22 C           4.8805    3.0651    0.0592 C.ar    1  UNL1       -0.0364
     23 C           3.5756    2.7385    0.0537 C.ar    1  UNL1        0.0417
     24 N           2.8082    3.8801    0.0943 N.ar    1  UNL1       -0.3550
     25 H           1.8831    3.9432   -0.3236 H       1  UNL1        0.1659
     26 C           3.1109    1.4798    0.0100 C.2     1  UNL1       -0.0129
     27 H           3.8478    0.6584   -0.0110 H       1  UNL1        0.0659
     28 H           5.7348    2.3676    0.0371 H       1  UNL1        0.0639
     29 H           5.9135    4.9802    0.0367 H       1  UNL1        0.0639
     30 H           4.2753    6.9308   -0.0121 H       1  UNL1        0.0659
     31 H           2.5903    8.8778   -0.0334 H       1  UNL1        0.0639
     32 H          -0.0449    9.0322   -0.0008 H       1  UNL1        0.0639
     33 H          -1.9319    7.3248    0.0572 H       1  UNL1        0.0659
     34 H          -3.8558    5.6517    0.0979 H       1  UNL1        0.0639
     35 H          -4.0348    3.0275    0.0982 H       1  UNL1        0.0639
     36 H          -2.3553    1.1083    0.0583 H       1  UNL1        0.0659
     37 H           1.9145   -1.0426   -0.0311 H       1  UNL1        0.0639
     38 H          -0.7170   -0.8384    0.0016 H       1  UNL1        0.0639
@<TRIPOS>BOND
     1     1     2    2
     2     2     3    1
     3     3     4    2
     4     4     5    1
     5     1     5    1
     6     5     6    2
     7     3    26    1
     8     9     8   ar
     9     8     7   ar
    10     7    11   ar
    11    11    10   ar
    12     9    10   ar
    13    10    13    1
    14     7     6    1
    15    16    15    2
    16    15    14    1
    17    14    18    1
    18    18    17    2
    19    16    17    1
    20    17    19    1
    21    14    13    2
    22    22    21   ar
    23    21    20   ar
    24    20    24   ar
    25    24    23   ar
    26    22    23   ar
    27    23    26    2
    28    20    19    2
    29     8    35    1
    30     9    34    1
    31    13    33    1
    32    15    32    1
    33    16    31    1
    34    19    30    1
    35    21    29    1
    36    22    28    1
    37    26    27    1
    38     2    37    1
    39     1    38    1
    40     6    36    1
    41    11    12    1
    42    24    25    1
