@<TRIPOS>MOLECULE
*****
 11 10 0 0 0
SMALL
GASTEIGER

@<TRIPOS>ATOM
      1 C          -0.0373    0.0535    0.0244 C.3     1  UNL1        0.0983
      2 C           0.6631   -0.8107    0.9648 C.1     1  UNL1        0.0729
      3 N           1.2155   -1.5034    1.7056 N.1     1  UNL1       -0.1959
      4 C           0.3259    1.5313    0.2690 C.2     1  UNL1        0.1368
      5 O           0.4600    2.2927   -0.6546 O.2     1  UNL1       -0.2997
      6 H           0.4300    1.8276    1.3223 H       1  UNL1        0.1040
      7 C          -1.5537   -0.1062    0.1539 C.3     1  UNL1       -0.0429
      8 H          -1.8617   -1.1425   -0.0449 H       1  UNL1        0.0246
      9 H          -1.9159    0.1503    1.1577 H       1  UNL1        0.0246
     10 H          -2.0814    0.5322   -0.5687 H       1  UNL1        0.0246
     11 H           0.2735   -0.2220   -1.0256 H       1  UNL1        0.0526
@<TRIPOS>BOND
     1     1     2    1
     2     1     4    1
     3     3     2    3
     4     4     5    2
     5     1     7    1
     6     1    11    1
     7     4     6    1
     8     7     8    1
     9     7     9    1
    10     7    10    1
