@<TRIPOS>MOLECULE
*****
 15 14 0 0 0
SMALL
GASTEIGER

@<TRIPOS>ATOM
      1 C          -1.5370   -2.5663    0.5490 C.3     1  UNL1       -0.0641
      2 C          -1.9703   -1.4219   -0.4018 C.3     1  UNL1       -0.0405
      3 C          -1.4427   -0.0080   -0.0028 C.3     1  UNL1        0.0431
      4 C          -2.0034    1.0978   -0.9370 C.3     1  UNL1       -0.0495
      5 H          -1.6664    2.0860   -0.6124 H       1  UNL1        0.0242
      6 H          -3.0950    1.0970   -0.9110 H       1  UNL1        0.0242
      7 H          -1.6840    0.9400   -1.9712 H       1  UNL1        0.0242
      8 H          -1.7857    0.2146    1.0110 H       1  UNL1        0.0451
      9 C          -0.0656    0.0396    0.0122 C.1     1  UNL1        0.0656
     10 N           1.0826    0.0710    0.0264 N.1     1  UNL1       -0.1963
     11 H          -3.0641   -1.3996   -0.4064 H       1  UNL1        0.0275
     12 H          -1.6457   -1.6676   -1.4186 H       1  UNL1        0.0275
     13 H          -1.8943   -2.3747    1.5619 H       1  UNL1        0.0230
     14 H          -1.9558   -3.5116    0.2019 H       1  UNL1        0.0230
     15 H          -0.4504   -2.6610    0.5677 H       1  UNL1        0.0230
@<TRIPOS>BOND
     1     1     2    1
     2     2     3    1
     3     3     4    1
     4     9    10    3
     5     3     8    1
     6     3     9    1
     7     1    13    1
     8     4     5    1
     9     1    14    1
    10     1    15    1
    11     2    11    1
    12     2    12    1
    13     4     6    1
    14     4     7    1
