@<TRIPOS>MOLECULE
*****
 19 18 0 0 0
SMALL
GASTEIGER

@<TRIPOS>ATOM
      1 C           1.9634    1.0670   -2.6782 C.3     1  UNL1       -0.0650
      2 C           1.1261    0.9659   -1.3826 C.3     1  UNL1       -0.0522
      3 C           1.9216    1.1570   -0.0486 C.3     1  UNL1       -0.0318
      4 C           3.0355    0.0871    0.1487 C.3     1  UNL1       -0.0613
      5 H           3.5501    0.2419    1.0997 H       1  UNL1        0.0233
      6 H           3.7858    0.1611   -0.6384 H       1  UNL1        0.0233
      7 H           2.6123   -0.9204    0.1392 H       1  UNL1        0.0233
      8 H           2.4132    2.1347   -0.0861 H       1  UNL1        0.0310
      9 C           0.9707    1.1614    1.1860 C.3     1  UNL1       -0.0043
     10 N          -0.0577    2.2053    1.1051 N.3     1  UNL1       -0.3297
     11 H           0.4232    3.1057    1.0994 H       1  UNL1        0.1182
     12 H          -0.6012    2.1624    1.9692 H       1  UNL1        0.1182
     13 H           0.4709    0.1959    1.2818 H       1  UNL1        0.0424
     14 H           1.5430    1.3408    2.0984 H       1  UNL1        0.0424
     15 H           0.3565    1.7402   -1.4475 H       1  UNL1        0.0266
     16 H           0.6177   -0.0015   -1.3693 H       1  UNL1        0.0266
     17 H           2.4952    2.0201   -2.7169 H       1  UNL1        0.0230
     18 H           1.3023    1.0005   -3.5448 H       1  UNL1        0.0230
     19 H           2.6816    0.2504   -2.7430 H       1  UNL1        0.0230
@<TRIPOS>BOND
     1     1     2    1
     2     2     3    1
     3     3     4    1
     4     3     8    1
     5     3     9    1
     6     1    17    1
     7     4     5    1
     8     1    18    1
     9     1    19    1
    10     2    15    1
    11     2    16    1
    12     4     6    1
    13     4     7    1
    14    10    11    1
    15     9    10    1
    16    10    12    1
    17     9    13    1
    18     9    14    1
