@<TRIPOS>MOLECULE
*****
 17 16 0 0 0
SMALL
GASTEIGER

@<TRIPOS>ATOM
      1 C          -0.9847   -2.8998   -0.7558 C.3     1  UNL1       -0.0647
      2 C          -1.6367   -1.9404    0.2699 C.3     1  UNL1       -0.0485
      3 C          -0.6221   -1.1190    1.1263 C.3     1  UNL1       -0.0093
      4 C          -1.3444   -0.2481    2.1917 C.3     1  UNL1       -0.0576
      5 H          -0.6123    0.2825    2.8069 H       1  UNL1        0.0236
      6 H          -2.0055    0.4837    1.7218 H       1  UNL1        0.0236
      7 H          -1.9412   -0.8785    2.8542 H       1  UNL1        0.0236
      8 H          -0.0008   -1.8333    1.6785 H       1  UNL1        0.0355
      9 C           0.2239   -0.2815    0.2846 C.2     1  UNL1       -0.0009
     10 N           1.4875   -0.4601    0.2156 N.2     1  UNL1       -0.3114
     11 H           2.0087    0.0807   -0.3412 H       1  UNL1        0.1856
     12 H          -0.1819    0.4417   -0.2625 H       1  UNL1        0.0778
     13 H          -2.3052   -1.2595   -0.2641 H       1  UNL1        0.0269
     14 H          -2.2530   -2.5464    0.9405 H       1  UNL1        0.0269
     15 H          -0.3420   -3.6224   -0.2506 H       1  UNL1        0.0230
     16 H          -1.7634   -3.4408   -1.2968 H       1  UNL1        0.0230
     17 H          -0.3915   -2.3453   -1.4834 H       1  UNL1        0.0230
@<TRIPOS>BOND
     1     1     2    1
     2     2     3    1
     3     3     4    1
     4     3     8    1
     5     3     9    1
     6     1    15    1
     7     4     5    1
     8     1    16    1
     9     1    17    1
    10     2    13    1
    11     2    14    1
    12     4     6    1
    13     4     7    1
    14     9    10    2
    15     9    12    1
    16    10    11    1
