@<TRIPOS>MOLECULE
*****
 13 13 0 0 0
SMALL
GASTEIGER

@<TRIPOS>ATOM
      1 O          -0.4698    1.1697   -0.3891 O.3     1  UNL1       -0.3798
      2 C           0.2162    0.3423    0.5548 C.3     1  UNL1        0.0477
      3 C           1.5303   -0.0579   -0.1247 C.3     1  UNL1       -0.0274
      4 C           1.8967    1.2254   -0.8767 C.3     1  UNL1       -0.0274
      5 C           0.5239    1.8701   -1.1528 C.3     1  UNL1        0.0477
      6 H          -0.3849   -0.5359    0.7964 H       1  UNL1        0.0560
      7 H           0.4073    0.9042    1.4742 H       1  UNL1        0.0560
      8 H           1.3585   -0.8786   -0.8280 H       1  UNL1        0.0288
      9 H           2.2967   -0.3460    0.5985 H       1  UNL1        0.0288
     10 H           2.5038    1.8793   -0.2417 H       1  UNL1        0.0288
     11 H           2.4418    1.0085   -1.7987 H       1  UNL1        0.0288
     12 H           0.5270    2.9269   -0.8733 H       1  UNL1        0.0560
     13 H           0.2684    1.7872   -2.2121 H       1  UNL1        0.0560
@<TRIPOS>BOND
     1     1     2    1
     2     2     3    1
     3     3     4    1
     4     4     5    1
     5     1     5    1
     6     2     6    1
     7     2     7    1
     8     3     8    1
     9     3     9    1
    10     4    10    1
    11     4    11    1
    12     5    12    1
    13     5    13    1
