@<TRIPOS>MOLECULE
*****
 34 36 0 0 0
SMALL
GASTEIGER

@<TRIPOS>ATOM
      1 C          -0.6978    0.6531   -0.9556 C.ar    1  UNL1       -0.0617
      2 C           0.3637    0.3565   -0.0946 C.ar    1  UNL1       -0.0611
      3 C           1.3888    1.2885    0.1045 C.ar    1  UNL1       -0.0535
      4 C           1.3383    2.5186   -0.5571 C.ar    1  UNL1       -0.0147
      5 C           0.2831    2.8228   -1.4178 C.ar    1  UNL1       -0.0535
      6 C          -0.7366    1.8838   -1.6171 C.ar    1  UNL1       -0.0611
      7 H          -1.5613    2.1147   -2.2887 H       1  UNL1        0.0618
      8 H           0.2273    3.7781   -1.9445 H       1  UNL1        0.0624
      9 P           2.7773    3.6869   -0.2791 P.3     1  UNL1       -0.0131
     10 C           2.4461    4.4190    1.4142 C.ar    1  UNL1       -0.0147
     11 C           3.4431    5.2376    1.9519 C.ar    1  UNL1       -0.0535
     12 C           3.2724    5.7821    3.2300 C.ar    1  UNL1       -0.0611
     13 C           2.1159    5.5011    3.9645 C.ar    1  UNL1       -0.0617
     14 C           1.1269    4.6768    3.4204 C.ar    1  UNL1       -0.0611
     15 C           1.2891    4.1335    2.1398 C.ar    1  UNL1       -0.0535
     16 H           0.5000    3.4950    1.7366 H       1  UNL1        0.0624
     17 H           0.2273    4.4562    3.9919 H       1  UNL1        0.0618
     18 H           1.9871    5.9228    4.9597 H       1  UNL1        0.0618
     19 H           4.0437    6.4220    3.6544 H       1  UNL1        0.0618
     20 H           4.3586    5.4675    1.4031 H       1  UNL1        0.0624
     21 C           2.4435    5.1051   -1.4583 C.ar    1  UNL1       -0.0147
     22 C           2.7534    4.8911   -2.8042 C.ar    1  UNL1       -0.0535
     23 C           2.5637    5.9257   -3.7277 C.ar    1  UNL1       -0.0611
     24 C           2.0752    7.1655   -3.3031 C.ar    1  UNL1       -0.0617
     25 C           1.7733    7.3716   -1.9539 C.ar    1  UNL1       -0.0611
     26 C           1.9556    6.3387   -1.0259 C.ar    1  UNL1       -0.0535
     27 H           1.7094    6.5248    0.0219 H       1  UNL1        0.0624
     28 H           1.3948    8.3366   -1.6224 H       1  UNL1        0.0618
     29 H           1.9320    7.9696   -4.0226 H       1  UNL1        0.0618
     30 H           2.8011    5.7657   -4.7777 H       1  UNL1        0.0618
     31 H           3.1428    3.9356   -3.1613 H       1  UNL1        0.0624
     32 H           2.2093    1.0285    0.7764 H       1  UNL1        0.0624
     33 H           0.3955   -0.6026    0.4188 H       1  UNL1        0.0618
     34 H          -1.4919   -0.0748   -1.1115 H       1  UNL1        0.0618
@<TRIPOS>BOND
     1     1     2   ar
     2     2     3   ar
     3     3     4   ar
     4     4     5   ar
     5     5     6   ar
     6     1     6   ar
     7     4     9    1
     8     9    10    1
     9    10    11   ar
    10    11    12   ar
    11    12    13   ar
    12    13    14   ar
    13    14    15   ar
    14    10    15   ar
    15     9    21    1
    16    21    22   ar
    17    22    23   ar
    18    23    24   ar
    19    24    25   ar
    20    25    26   ar
    21    21    26   ar
    22     1    34    1
    23     2    33    1
    24     3    32    1
    25     5     8    1
    26     6     7    1
    27    11    20    1
    28    12    19    1
    29    13    18    1
    30    14    17    1
    31    15    16    1
    32    22    31    1
    33    23    30    1
    34    24    29    1
    35    25    28    1
    36    26    27    1
