@<TRIPOS>MOLECULE
*****
 43 45 0 0 0
SMALL
GASTEIGER

@<TRIPOS>ATOM
      1 CE          0.0000    0.0000    0.0000 Ce      1  UNL1        0.0000
      2 O           2.0563    0.0000    0.0000 O.2     1  UNL1        0.0000
      3 C           2.7131    1.0658    0.0000 C.2     1  UNL1        0.0000
      4 C           2.2572    2.1925   -0.6726 C.2     1  UNL1        0.0000
      5 C           1.1712    2.2612   -1.4671 C.2     1  UNL1        0.0000
      6 C           0.8060    3.5108   -2.1093 C.3     1  UNL1        0.0000
      7 H           0.7861    4.3086   -1.3668 H       1  UNL1        0.0000
      8 H           1.5380    3.7505   -2.8805 H       1  UNL1        0.0000
      9 H          -0.1802    3.4117   -2.5627 H       1  UNL1        0.0000
     10 O           0.4089    1.2065   -1.7622 O.2     1  UNL1        0.0000
     11 H           2.8334    3.1090   -0.5454 H       1  UNL1        0.0000
     12 C           3.9697    1.0584    0.7778 C.3     1  UNL1        0.0000
     13 H           3.7379    1.0775    1.8427 H       1  UNL1        0.0000
     14 H           4.5357    0.1564    0.5452 H       1  UNL1        0.0000
     15 H           4.5622    1.9360    0.5191 H       1  UNL1        0.0000
     16 O          -0.5824   -1.4667   -1.4876 O.2     1  UNL1        0.0000
     17 C           0.4064   -2.3508   -1.5828 C.2     1  UNL1        0.0000
     18 C           0.9736   -2.9087   -0.4942 C.2     1  UNL1        0.0000
     19 C           0.6396   -2.6316    0.8298 C.2     1  UNL1        0.0000
     20 O          -0.1659   -1.7183    1.1294 O.2     1  UNL1        0.0000
     21 C           1.2534   -3.3859    1.9425 C.3     1  UNL1        0.0000
     22 H           1.1305   -2.8282    2.8709 H       1  UNL1        0.0000
     23 H           0.7670   -4.3570    2.0350 H       1  UNL1        0.0000
     24 H           2.3153   -3.5290    1.7424 H       1  UNL1        0.0000
     25 H           1.7627   -3.6409   -0.6650 H       1  UNL1        0.0000
     26 C           0.8536   -2.6730   -2.9241 C.3     1  UNL1        0.0000
     27 H           1.8511   -3.1102   -2.8793 H       1  UNL1        0.0000
     28 H           0.1642   -3.3865   -3.3754 H       1  UNL1        0.0000
     29 H           0.8818   -1.7646   -3.5258 H       1  UNL1        0.0000
     30 O           0.0208    1.0377    1.9100 O.2     1  UNL1        0.0000
     31 C          -0.4052    2.2938    1.7749 C.2     1  UNL1        0.0000
     32 C           0.3000    3.2874    2.5632 C.3     1  UNL1        0.0000
     33 H           0.3094    2.9814    3.6093 H       1  UNL1        0.0000
     34 H           1.3244    3.3776    2.2018 H       1  UNL1        0.0000
     35 H          -0.2040    4.2494    2.4705 H       1  UNL1        0.0000
     36 C          -1.4562    2.6441    1.0064 C.2     1  UNL1        0.0000
     37 C          -2.2291    1.7889    0.2264 C.2     1  UNL1        0.0000
     38 O          -1.9618    0.5699    0.1243 O.2     1  UNL1        0.0000
     39 C          -3.4044    2.2564   -0.5382 C.3     1  UNL1        0.0000
     40 H          -4.1462    2.6638    0.1487 H       1  UNL1        0.0000
     41 H          -3.0962    3.0305   -1.2409 H       1  UNL1        0.0000
     42 H          -3.8376    1.4197   -1.0863 H       1  UNL1        0.0000
     43 H          -1.7269    3.6999    0.9948 H       1  UNL1        0.0000
@<TRIPOS>BOND
     1     1     2    1
     2     1    16    1
     3     2     3    2
     4     5     4    2
     5     4     3    1
     6     3    12    1
     7     5     6    1
     8    20    19    2
     9    19    18    1
    10    18    17    2
    11    17    26    1
    12    19    21    1
    13     1    20    1
    14     1    30    1
    15     1    38    1
    16     1    10    1
    17    38    37    2
    18    30    31    1
    19    31    32    1
    20    37    39    1
    21    36    37    1
    22    31    36    2
    23    10     5    1
    24    16    17    1
    25     4    11    1
    26    12    13    1
    27    12    14    1
    28    12    15    1
    29     6     7    1
    30     6     8    1
    31     6     9    1
    32    18    25    1
    33    26    27    1
    34    26    28    1
    35    26    29    1
    36    21    22    1
    37    21    23    1
    38    21    24    1
    39    32    33    1
    40    32    34    1
    41    32    35    1
    42    39    40    1
    43    39    41    1
    44    39    42    1
    45    36    43    1
