@<TRIPOS>MOLECULE
*****
 22 21 0 0 0
SMALL
GASTEIGER

@<TRIPOS>ATOM
      1 CR         -2.0895    0.1272    0.0062 Cr.oh   1  UNL1        0.0000
      2 CR         -2.0428   -2.8900   -0.5980 Cr.oh   1  UNL1        0.0000
      3 C          -1.8255   -5.0369   -0.8494 C.1     1  UNL1        0.0000
      4 O          -1.7083   -6.1445   -0.9696 O.3     1  UNL1        0.0000
      5 C           0.0920   -2.7463   -0.4913 C.1     1  UNL1        0.0000
      6 O           1.2090   -2.6843   -0.4419 O.3     1  UNL1        0.0000
      7 C          -4.1810   -3.1151   -0.7840 C.1     1  UNL1        0.0000
      8 O          -5.2898   -3.2379   -0.8845 O.3     1  UNL1        0.0000
      9 C          -1.9885   -2.5899   -2.7276 C.1     1  UNL1        0.0000
     10 O          -1.9720   -2.4417   -3.8379 O.3     1  UNL1        0.0000
     11 C          -2.2246   -3.2028    1.5164 C.1     1  UNL1        0.0000
     12 O          -2.3232   -3.3725    2.6191 O.3     1  UNL1        0.0000
     13 C           0.0538    0.3221    0.0911 C.1     1  UNL1        0.0000
     14 O           1.1683    0.4235    0.1401 O.3     1  UNL1        0.0000
     15 C          -2.0087    0.4719   -2.1096 C.1     1  UNL1        0.0000
     16 O          -1.9621    0.6587   -3.2128 O.3     1  UNL1        0.0000
     17 C          -2.2918    2.2665    0.3083 C.1     1  UNL1        0.0000
     18 O          -2.3939    3.3699    0.4697 O.3     1  UNL1        0.0000
     19 C          -4.2199   -0.0607   -0.0126 C.1     1  UNL1        0.0000
     20 O          -5.3358   -0.1540   -0.0174 O.3     1  UNL1        0.0000
     21 C          -2.0777   -0.1352    2.1421 C.1     1  UNL1        0.0000
     22 O          -2.0693   -0.2691    3.2539 O.3     1  UNL1        0.0000
@<TRIPOS>UNITY_ATOM_ATTR
4 1
charge 3
6 1
charge 3
8 1
charge 3
10 1
charge 3
12 1
charge 3
14 1
charge 3
16 1
charge 3
18 1
charge 3
20 1
charge 3
22 1
charge 3
@<TRIPOS>BOND
     1     1     2    1
     2     2     3    1
     3     1    13    1
     4    13    14    3
     5    19    20    3
     6    21    22    3
     7    15    16    3
     8    17    18    3
     9     5     6    3
    10     7     8    3
    11     3     4    3
    12    11    12    3
    13     9    10    3
    14     1    15    1
    15     1    17    1
    16     2     5    1
    17     2     7    1
    18     1    19    1
    19     1    21    1
    20     2     9    1
    21     2    11    1
