@<TRIPOS>MOLECULE
https://chemcompute.org/app/GAMESS/download_job/1349502/?t=0.05126067473069995
 137 139 0 0 0
SMALL
GASTEIGER
****
Jmol version 14.31.39  2021-05-15 06:46 EXTRACT: ({137:273})
@<TRIPOS>ATOM
      1 NI          0.0682    0.0287    0.1810 Ni      1  UNL1        0.0000
      2 P          -0.7147   -2.2976    1.0436 P.3     1  UNL1        0.0000
      3 P          -2.2679    0.8909    0.2698 P.3     1  UNL1        0.0000
      4 P           2.1932   -0.9266   -0.8496 P.3     1  UNL1        0.0000
      5 P           0.9811    2.4463    0.0777 P.3     1  UNL1        0.0000
      6 C           0.4764   -3.3950    2.0510 C.3     2  UNL2        0.0000
      7 C          -1.4112   -4.0014    0.3438 C.3     3  UNL3        0.0000
      8 C          -2.2205   -2.1427    2.1812 C.3     4  UNL4        0.0000
      9 C          -3.3602   -0.2569   -0.7197 C.3     1  UNL1        0.0000
     10 C          -2.6291    2.3536   -0.8497 C.3     1  UNL1        0.0000
     11 C          -3.4611    1.3590    1.7133 C.3     5  UNL5        0.0000
     12 C           2.8755    2.3195    0.0026 C.3     6  UNL6        0.0000
     13 C          -0.0904    3.6743    1.1940 C.3     7  UNL7        0.0000
     14 C           1.5787    4.1551   -0.6210 C.3     8  UNL8        0.0000
     15 C           1.8650   -2.5722   -1.7345 C.3     9  UNL9        0.0000
     16 C           2.3916    0.0233   -2.4577 C.3     1  UNL1        0.0000
     17 C           4.0927   -1.1612   -0.3930 C.3    10  UNL10       0.0000
     18 C          -2.1356   -4.8148    1.1700 C.3     3  UNL3        0.0000
     19 C          -2.2087   -6.2905    1.1131 C.3     3  UNL3        0.0000
     20 C          -1.6506   -6.9235    0.0791 C.3     3  UNL3        0.0000
     21 C          -0.9801   -6.1037   -0.9498 C.3     3  UNL3        0.0000
     22 C          -0.8704   -4.7583   -0.8067 C.3     3  UNL3        0.0000
     23 C           0.0272   -4.2533    3.0039 C.3     2  UNL2        0.0000
     24 C           0.8566   -5.3709    3.5170 C.3     2  UNL2        0.0000
     25 C           2.0914   -5.5610    3.0415 C.3     2  UNL2        0.0000
     26 C           2.6369   -4.6022    2.0684 C.3     2  UNL2        0.0000
     27 C           1.8826   -3.5866    1.6245 C.3     2  UNL2        0.0000
     28 C          -2.1175   -1.8121    3.4784 C.3     4  UNL4        0.0000
     29 C          -3.2902   -1.9241    4.3796 C.3     4  UNL4        0.0000
     30 C          -4.4667   -2.3896    3.9329 C.3     4  UNL4        0.0000
     31 C          -4.6155   -2.7459    2.5159 C.3     4  UNL4        0.0000
     32 C          -3.5762   -2.5859    1.6944 C.3     4  UNL4        0.0000
     33 C          -4.7004   -0.0725   -0.7978 C.3     1  UNL1        0.0000
     34 C          -5.5727   -1.0002   -1.5303 C.3     1  UNL1        0.0000
     35 C          -5.0408   -2.0482   -2.1616 C.3     1  UNL1        0.0000
     36 C          -3.5767   -2.2505   -2.1318 C.3     1  UNL1        0.0000
     37 C          -2.7886   -1.4063   -1.4588 C.3     1  UNL1        0.0000
     38 C          -1.7614    2.7486   -1.7872 C.3     1  UNL1        0.0000
     39 C          -2.0547    3.9076   -2.6583 C.3     1  UNL1        0.0000
     40 C          -3.1917    4.5842   -2.5235 C.3     1  UNL1        0.0000
     41 C          -4.1778    4.1683   -1.5185 C.3     1  UNL1        0.0000
     42 C          -3.9158    3.1135   -0.7417 C.3     1  UNL1        0.0000
     43 C          -3.5474    2.6062    2.2080 C.3     5  UNL5        0.0000
     44 C          -4.5979    3.0371    3.1783 C.3     5  UNL5        0.0000
     45 C          -5.5341    2.1712    3.5789 C.3     5  UNL5        0.0000
     46 C          -5.5137    0.8127    3.0418 C.3     5  UNL5        0.0000
     47 C          -4.5526    0.4650    2.1759 C.3     5  UNL5        0.0000
     48 C          -0.5857    4.8939    0.7331 C.3     7  UNL7        0.0000
     49 C          -1.3187    5.8728    1.5517 C.3     7  UNL7        0.0000
     50 C          -1.5988    5.5750    2.8068 C.3     7  UNL7        0.0000
     51 C          -1.1689    4.2755    3.3492 C.3     7  UNL7        0.0000
     52 C          -0.4474    3.3896    2.6105 C.3     7  UNL7        0.0000
     53 C           2.2727    4.9931    0.2235 C.3     8  UNL8        0.0000
     54 C           2.7829    6.3105   -0.1758 C.3     8  UNL8        0.0000
     55 C           2.5615    6.7442   -1.4152 C.3     8  UNL8        0.0000
     56 C           1.8146    5.8883   -2.3629 C.3     8  UNL8        0.0000
     57 C           1.3591    4.6736   -2.0013 C.3     8  UNL8        0.0000
     58 C           3.6888    2.2312    1.0617 C.3     6  UNL6        0.0000
     59 C           5.1661    2.3348    0.8788 C.3     6  UNL6        0.0000
     60 C           5.7149    2.5268   -0.3324 C.3     6  UNL6        0.0000
     61 C           4.8545    2.6291   -1.5098 C.3     6  UNL6        0.0000
     62 C           3.5427    2.5168   -1.3438 C.3     6  UNL6        0.0000
     63 C           3.5454    0.2324   -3.1533 C.3     1  UNL1        0.0000
     64 C           3.5727    0.9930   -4.4099 C.3     1  UNL1        0.0000
     65 C           2.4449    1.5069   -4.8954 C.3     1  UNL1        0.0000
     66 C           1.1763    1.3002   -4.1672 C.3     1  UNL1        0.0000
     67 C           1.1611    0.6025   -3.0285 C.3     1  UNL1        0.0000
     68 C           1.0291   -2.6605   -2.8026 C.3     9  UNL9        0.0000
     69 C           0.8803   -3.9431   -3.5498 C.3     9  UNL9        0.0000
     70 C           1.4781   -5.0700   -3.1116 C.3     9  UNL9        0.0000
     71 C           2.3036   -5.0179   -1.8789 C.3     9  UNL9        0.0000
     72 C           2.6187   -3.8280   -1.3671 C.3     9  UNL9        0.0000
     73 C           4.8972   -1.7789   -1.3008 C.3    10  UNL10       0.0000
     74 C           6.3516   -1.9821   -1.1891 C.3    10  UNL10       0.0000
     75 C           6.9911   -1.5118   -0.1279 C.3    10  UNL10       0.0000
     76 C           6.2183   -0.8313    0.9166 C.3    10  UNL10       0.0000
     77 C           4.8633   -0.6929    0.8209 C.3    10  UNL10       0.0000
     78 H          -3.0277   -4.9593    0.5629 H       3  UNL3        0.0000
     79 H          -2.7196   -6.8479    1.8912 H       3  UNL3        0.0000
     80 H          -1.7037   -8.0025    0.0043 H       3  UNL3        0.0000
     81 H          -0.5618   -6.6310   -1.7971 H       3  UNL3        0.0000
     82 H          -0.3721   -4.1738   -1.5044 H       3  UNL3        0.0000
     83 H          -0.9950   -4.2542    3.3561 H       2  UNL2        0.0000
     84 H           0.4430   -6.0737    4.2285 H       2  UNL2        0.0000
     85 H           2.6863   -6.4069    3.3698 H       2  UNL2        0.0000
     86 H           3.6550   -4.7245    1.7127 H       2  UNL2        0.0000
     87 H           2.3087   -2.9086    0.9334 H       2  UNL2        0.0000
     88 H          -1.1606   -1.5296    3.8958 H       4  UNL4        0.0000
     89 H          -3.1875   -1.6600    5.4236 H       4  UNL4        0.0000
     90 H          -5.3163   -2.4900    4.5924 H       4  UNL4        0.0000
     91 H          -5.5741   -3.0897    2.1365 H       4  UNL4        0.0000
     92 H          -3.7434   -2.8231    0.6520 H       4  UNL4        0.0000
     93 H          -5.2083    0.7422   -0.3083 H       1  UNL1        0.0000
     94 H          -6.6462   -0.8365   -1.5486 H       1  UNL1        0.0000
     95 H          -5.6765   -2.7361   -2.6969 H       1  UNL1        0.0000
     96 H          -3.1463   -3.0892   -2.6643 H       1  UNL1        0.0000
     97 H          -1.7204   -1.5674   -1.4616 H       1  UNL1        0.0000
     98 H          -0.8383    2.2393   -1.9314 H       1  UNL1        0.0000
     99 H          -1.3430    4.2135   -3.4117 H       1  UNL1        0.0000
    100 H          -3.4028    5.4344   -3.1594 H       1  UNL1        0.0000
    101 H          -5.1099    4.7065   -1.4179 H       1  UNL1        0.0000
    102 H          -4.6979    2.8627   -0.0386 H       1  UNL1        0.0000
    103 H          -2.8910    3.3558    1.8248 H       5  UNL5        0.0000
    104 H          -4.6398    4.0549    3.5398 H       5  UNL5        0.0000
    105 H          -6.3250    2.4684    4.2603 H       5  UNL5        0.0000
    106 H          -6.2932    0.1100    3.3088 H       5  UNL5        0.0000
    107 H          -4.6344   -0.4794    1.7503 H       5  UNL5        0.0000
    108 H          -0.4543    5.3405   -0.2512 H       7  UNL7        0.0000
    109 H          -1.6124    6.8325    1.1291 H       7  UNL7        0.0000
    110 H          -2.1450    6.2829    3.4227 H       7  UNL7        0.0000
    111 H          -1.5083    4.0849    4.3495 H       7  UNL7        0.0000
    112 H          -0.1707    2.4415    3.0438 H       7  UNL7        0.0000
    113 H           2.4713    4.7001    1.2511 H       8  UNL8        0.0000
    114 H           3.3296    6.9238    0.5324 H       8  UNL8        0.0000
    115 H           2.9310    7.7146   -1.7188 H       8  UNL8        0.0000
    116 H           1.6465    6.2614   -3.3648 H       8  UNL8        0.0000
    117 H           0.8306    4.0639   -2.7139 H       8  UNL8        0.0000
    118 H           3.2743    2.1415    2.0568 H       6  UNL6        0.0000
    119 H           5.8128    2.2671    1.7426 H       6  UNL6        0.0000
    120 H           6.7844    2.6140   -0.4673 H       6  UNL6        0.0000
    121 H           5.2709    2.8008   -2.4987 H       6  UNL6        0.0000
    122 H           2.9360    2.6227   -2.2294 H       6  UNL6        0.0000
    123 H           4.5282   -0.0747   -2.8848 H       1  UNL1        0.0000
    124 H           4.5141    1.1391   -4.9322 H       1  UNL1        0.0000
    125 H           2.4590    2.0700   -5.8152 H       1  UNL1        0.0000
    126 H           0.2594    1.7134   -4.5649 H       1  UNL1        0.0000
    127 H           0.2293    0.4419   -2.5066 H       1  UNL1        0.0000
    128 H           0.4614   -1.8205   -3.1598 H       9  UNL9        0.0000
    129 H           0.2470   -3.9792   -4.4237 H       9  UNL9        0.0000
    130 H           1.3178   -6.0075   -3.6204 H       9  UNL9        0.0000
    131 H           2.6112   -5.9298   -1.3769 H       9  UNL9        0.0000
    132 H           3.1532   -3.5352   -2.2539 H       9  UNL9        0.0000
    133 H           4.5497   -2.1321   -2.2480 H      10  UNL10       0.0000
    134 H           6.8989   -2.4858   -1.9758 H      10  UNL10       0.0000
    135 H           8.0636   -1.6338   -0.0384 H      10  UNL10       0.0000
    136 H           6.8458   -0.4674    1.7291 H      10  UNL10       0.0000
    137 H           4.3639   -0.1954    1.6310 H      10  UNL10       0.0000
@<TRIPOS>BOND
     1     1     3    1
     2     1     2    1
     3     3    10    1
     4     3     9    1
     5     4     1    1
     6     5     1    1
     7     6    23    1
     8     7    18    1
     9     8    28    1
    10     8    32    1
    11     9    33    1
    12    10    42    1
    13    11    43    1
    14    11    47    1
    15    13    48    1
    16    13    52    1
    17    14    57    1
    18    15    68    1
    19    16    67    1
    20    16     4    1
    21    18    78    1
    22    19    18    1
    23    19    79    1
    24    20    19    1
    25    21    22    1
    26    21    20    1
    27    22     7    1
    28    23    83    1
    29    24    23    1
    30    24    84    1
    31    25    24    1
    32    26    27    1
    33    26    25    1
    34    27     6    1
    35    28    29    1
    36    29    89    1
    37    29    30    1
    38    30    90    1
    39    31    30    1
    40    31    91    1
    41    32    31    1
    42    33    34    1
    43    33    93    1
    44    34    94    1
    45    35    34    1
    46    35    95    1
    47    36    35    1
    48    37    36    1
    49    37     9    1
    50    38    39    1
    51    38    10    1
    52    39    40    1
    53    40   100    1
    54    40    41    1
    55    41   101    1
    56    42    41    1
    57    42   102    1
    58    43    44    1
    59    44   104    1
    60    44    45    1
    61    45   105    1
    62    46    45    1
    63    46   106    1
    64    47    46    1
    65    48    49    1
    66    49   109    1
    67    49    50    1
    68    50   110    1
    69    51    50    1
    70    51   111    1
    71    52    51    1
    72    53    14    1
    73    54    55    1
    74    54    53    1
    75    55    56    1
    76    56   116    1
    77    56    57    1
    78    57   117    1
    79    58    12    1
    80    58   118    1
    81    59    58    1
    82    60    61    1
    83    60    59    1
    84    61    62    1
    85    62   122    1
    86    62    12    1
    87    63    16    1
    88    64    65    1
    89    64    63    1
    90    65    66    1
    91    66   126    1
    92    66    67    1
    93    67   127    1
    94    68   128    1
    95    69   129    1
    96    69    68    1
    97    70    69    1
    98    71    70    1
    99    71    72    1
   100    72    15    1
   101    73    17    1
   102    74    73    1
   103    75    76    1
   104    75    74    1
   105    76    77    1
   106    77    17    1
   107    77   137    1
   108    80    20    1
   109    81    21    1
   110    82    22    1
   111    85    25    1
   112    86    26    1
   113    87    27    1
   114    88    28    1
   115    92    32    1
   116    96    36    1
   117    97    37    1
   118    98    38    1
   119    99    39    1
   120   103    43    1
   121   107    47    1
   122   108    48    1
   123   112    52    1
   124   113    53    1
   125   114    54    1
   126   115    55    1
   127   119    59    1
   128   120    60    1
   129   121    61    1
   130   123    63    1
   131   124    64    1
   132   125    65    1
   133   130    70    1
   134   131    71    1
   135   132    72    1
   136   133    73    1
   137   134    74    1
   138   135    75    1
   139   136    76    1
