@<TRIPOS>MOLECULE
*****
 6 5 0 0 0
SMALL
GASTEIGER

@<TRIPOS>ATOM
      1 H           1.9082    0.2404   -1.0950 H       0  HOH0        0.1698
      2 O           1.5721   -0.2132   -0.2943 O.3     1  HOH1       -0.4918
      3 H           2.0107   -1.0289    0.0271 H       0  HOH0        0.1698
      4 H           0.2295    0.1764    0.2142 H       0  HOH0        0.3366
      5 O          -0.5122    0.5691    0.7225 O.3     2  HOH2       -0.3916
      6 H          -1.2912    0.4708    0.1384 H       0  HOH0        0.2073
@<TRIPOS>BOND
     1     1     2    1
     2     2     3    1
     3     4     5    1
     4     5     6    1
