@<TRIPOS>MOLECULE
*****
 6 5 0 0 0
SMALL
GASTEIGER

@<TRIPOS>ATOM
      1 H           1.9082    0.2404   -1.0950 H       0  HOH0        0.1698
      2 O           1.5721   -0.2132   -0.2943 O.3     1  HOH1       -0.4918
      3 H           2.0107   -1.0289    0.0271 H       0  HOH0        0.1698
@<TRIPOS>BOND
     1     1     2    1
     2     2     3    1
