####################################################################### 
# 
# This file contains crystal structure data downloaded from the 
# Cambridge Structural Database (CSD) hosted by the Cambridge 
# Crystallographic Data Centre (CCDC) in cooperation with FIZ Karlsruhe.
# 
# Please note that these data are only for research purposes or private use.
# For detailed information please see under Terms & Conditions.
# Full information about CCDC and FIZ Karlsruhe data access policies and 
# citation guidelines are available at http://www.ccdc.cam.ac.uk/access/V1
# 
# Audit and citation data items may have been added by FIZ Karlsruhe. 
# Please retain this information to preserve the provenance of 
# this file and to allow appropriate attribution of the data. 
# 
#######################################################################
@<TRIPOS>MOLECULE
KEHREX
    15    20     1     0     0
SMALL
NO_CHARGES
****
Generated from the CSD

@<TRIPOS>ATOM
     1 CA       0.0000   0.0000   0.0000   Ca        1 RES1   0.0000
     2 F        1.3614   1.3614   1.3614   F         1 RES1   0.0000
     3 F       -1.3614  -1.3614   1.3614   F         1 RES1   0.0000
     4 CA      -2.7227  -2.7227   0.0000   Ca        1 RES1   0.0000
     5 CA       2.7227   2.7227   0.0000   Ca        1 RES1   0.0000
     6 CA      -2.7227   0.0000   2.7227   Ca        1 RES1   0.0000
     7 CA       2.7227   0.0000   2.7227   Ca        1 RES1   0.0000
     8 CA       0.0000  -2.7227   2.7227   Ca        1 RES1   0.0000
     9 CA       0.0000   2.7227   2.7227   Ca        1 RES1   0.0000
    10 F       -1.3614   1.3614  -1.3614   F         1 RES1   0.0000
    11 F        1.3614  -1.3614  -1.3614   F         1 RES1   0.0000
    12 F        1.3614   1.3614  -1.3614   F         1 RES1   0.0000
    13 F       -1.3614  -1.3614  -1.3614   F         1 RES1   0.0000
    14 F        1.3614  -1.3614   1.3614   F         1 RES1   0.0000
    15 F       -1.3614   1.3614   1.3614   F         1 RES1   0.0000
@<TRIPOS>BOND
     1     1     2    1
     2     1     3    1
     3     1    10    1
     4     1    11    1
     5     1    12    1
     6     1    13    1
     7     1    14    1
     8     1    15    1
     9     2     5    1
    10     2     7    1
    11     2     9    1
    12     3     4    1
    13     3     6    1
    14     3     8    1
    15     4    13    1
    16     5    12    1
    17     6    15    1
    18     7    14    1
    19     8    14    1
    20     9    15    1
@<TRIPOS>SUBSTRUCTURE
     1 RES1        1 GROUP             0 ****  ****    0  
@<TRIPOS>CRYSIN
    5.4454    5.4454    5.4454   90.0000   90.0000   90.0000   225     1
