@<TRIPOS>MOLECULE
https://aflow.org/p/AB_cF8_225_a_b-001/findsym.cif
 27 0 0 0 0
SMALL
GASTEIGER
****
Jmol version 14.31.41  2021-05-29 22:19 EXTRACT: ({0:26})
@<TRIPOS>ATOM
      1 CL          0.0000    0.0000    0.0000 Cl      1  UNL1        0.0000
      2 NA          1.3279    1.8346    4.3270 Na      2  UNL2        0.0000
      3 CL         -1.2691    1.9555    3.2353 Cl      3  UNL3        0.0000
      4 NA          2.5969   -0.1209    1.0918 Na      4  UNL4        0.0000
      5 CL          1.5144   -0.8787    3.5827 Cl      5  UNL5        0.0000
      6 NA         -0.1866    2.7133    0.7443 Na      6  UNL6        0.0000
      7 CL          2.4104    2.5923    1.8361 Cl      7  UNL7        0.0000
      8 NA         -1.0825   -0.7578    2.4909 Na      8  UNL8        0.0000
      9 CL         -2.1650   -1.5156    4.9817 Cl      9  UNL9        0.0000
     10 NA          0.4320   -1.6365    6.0735 Na     10  UNL10       0.0000
     11 NA         -2.3515    1.1977    5.7261 Na     11  UNL11       0.0000
     12 CL          0.2454    1.0768    6.8179 Cl     12  UNL12       0.0000
     13 CL         -0.3732    5.4264    1.4887 Cl     13  UNL13       0.0000
     14 NA          2.2238    5.3055    2.5805 Na     14  UNL14       0.0000
     15 CL          1.1413    4.5477    5.0714 Cl     15  UNL15       0.0000
     16 NA         -1.4557    4.6687    3.9796 Na     16  UNL16       0.0000
     17 CL         -2.5381    3.9109    6.4704 Cl     17  UNL17       0.0000
     18 NA          0.0588    3.7900    7.5622 Na     18  UNL18       0.0000
     19 CL          5.1938   -0.2419    2.1835 Cl     19  UNL19       0.0000
     20 CL          3.9247    1.7136    5.4188 Cl     20  UNL20       0.0000
     21 NA          5.0072    2.4714    2.9279 Na     21  UNL21       0.0000
     22 NA          4.1113   -0.9996    4.6744 Na     22  UNL22       0.0000
     23 CL          3.0288   -1.7574    7.1653 Cl     23  UNL23       0.0000
     24 NA          2.8422    0.9559    7.9096 Na     24  UNL24       0.0000
     25 CL          4.8206    5.1846    3.6722 Cl     25  UNL25       0.0000
     26 NA          3.7381    4.4268    6.1631 Na     26  UNL26       0.0000
     27 CL          2.6557    3.6690    8.6539 Cl     27  UNL27       0.0000
@<TRIPOS>BOND
