####################################################################### 
# 
# This file contains crystal structure data downloaded from the 
# Cambridge Structural Database (CSD) hosted by the Cambridge 
# Crystallographic Data Centre (CCDC) in cooperation with FIZ Karlsruhe.
# 
# Please note that these data are only for research purposes or private use.
# For detailed information please see under Terms & Conditions.
# Full information about CCDC and FIZ Karlsruhe data access policies and 
# citation guidelines are available at http://www.ccdc.cam.ac.uk/access/V1
# 
# Audit and citation data items may have been added by FIZ Karlsruhe. 
# Please retain this information to preserve the provenance of 
# this file and to allow appropriate attribution of the data. 
# 
#######################################################################
@<TRIPOS>MOLECULE

    12    14     1     0     0
SMALL
NO_CHARGES
****
Generated from the CSD

@<TRIPOS>ATOM
     1 Zn1     -0.0002   2.2053   0.0000   Zn        1 RES1   0.0000
     2 S1      -0.0002   2.2053   2.3250   S.3       1 RES1   0.0000
     3 O1      -0.0002   2.2053   2.3250   O.3       1 RES1   0.0000
     4 Zn1     -1.9097   1.1028   3.1000   Zn        1 RES1   0.0000
     5 Zn1      1.9098   1.1028   3.1000   Zn        1 RES1   0.0000
     6 Zn1      0.0000   4.4106   3.1000   Zn        1 RES1   0.0000
     7 S1      -1.9097   1.1028  -0.7750   S.3       1 RES1   0.0000
     8 S1       1.9098   1.1028  -0.7750   S.3       1 RES1   0.0000
     9 S1       0.0000   4.4106  -0.7750   S.3       1 RES1   0.0000
    10 O1      -1.9097   1.1028  -0.7750   O.3       1 RES1   0.0000
    11 O1       1.9098   1.1028  -0.7750   O.3       1 RES1   0.0000
    12 O1       0.0000   4.4106  -0.7750   O.3       1 RES1   0.0000
@<TRIPOS>BOND
     1     1     2    1
     2     1     3    1
     3     1     7    1
     4     1     8    1
     5     1     9    1
     6     1    10    1
     7     1    11    1
     8     1    12    1
     9     2     4    1
    10     2     5    1
    11     2     6    1
    12     3     4    1
    13     3     5    1
    14     3     6    1
@<TRIPOS>SUBSTRUCTURE
     1 RES1        1 GROUP             0 ****  ****    0  
@<TRIPOS>CRYSIN
    3.8195    3.8195    6.2000   90.0000   90.0000  120.0000   186     1
