@<TRIPOS>MOLECULE
*****
 13 13 0 0 0
SMALL
GASTEIGER

@<TRIPOS>ATOM
      1 O          -0.9152    1.5277    0.0000 O.3     1  UNL1       -0.3798
      2 C          -1.5826    1.0427    0.0000 C.3     1  UNL1        0.0477
      3 C          -1.3277    0.2582    0.0000 C.3     1  UNL1       -0.0274
      4 C          -0.5027    0.2582    0.0000 C.3     1  UNL1       -0.0274
      5 C          -0.2478    1.0427    0.0000 C.3     1  UNL1        0.0477
      6 H          -2.6002    1.3733    0.0000 H       1  UNL1        0.0560
      7 H          -2.3392    0.2861    0.0000 H       1  UNL1        0.0560
      8 H          -1.9566   -0.6074    0.0000 H       1  UNL1        0.0288
      9 H          -0.8419   -0.6952    0.0000 H       1  UNL1        0.0288
     10 H           0.1262   -0.6074    0.0000 H       1  UNL1        0.0288
     11 H           0.5541    0.4256    0.0000 H       1  UNL1        0.0288
     12 H           0.7698    1.3733    0.0000 H       1  UNL1        0.0560
     13 H          -0.0803    2.0995    0.0000 H       1  UNL1        0.0560
@<TRIPOS>BOND
     1     1     2    1
     2     2     3    1
     3     3     4    1
     4     4     5    1
     5     1     5    1
     6     2     6    1
     7     2     7    1
     8     3     8    1
     9     3     9    1
    10     4    10    1
    11     4    11    1
    12     5    12    1
    13     5    13    1
